100
     RDKit          2D

 50 50  0  0  0  0  0  0  0  0999 V2000
   14.8538    2.7882    0.0000 O   0  0  0  0  0  0  0  0  0  0  0  0
   17.1301   -3.6978    0.0000 O   0  0  0  0  0  0  0  0  0  0  0  0
   19.3748   -2.3896    0.0000 O   0  0  0  0  0  0  0  0  0  0  0  0
   -3.1355    0.1172    0.0000 C   0  0  0  0  0  0  0  0  0  0  0  0
    1.3645    0.1354    0.0000 C   0  0  0  0  0  0  0  0  0  0  0  0
   -4.6355    0.1111    0.0000 C   0  0  0  0  0  0  0  0  0  0  0  0
   -7.6355    0.0989    0.0000 C   0  0  0  0  0  0  0  0  0  0  0  0
   -0.1355    0.1294    0.0000 C   0  0  0  0  0  0  0  0  0  0  0  0
   -2.3802   -1.1788    0.0000 C   0  0  0  0  0  0  0  0  0  0  0  0
   -9.1355    0.0929    0.0000 C   0  0  0  0  0  0  0  0  0  0  0  0
   -6.8907    1.4010    0.0000 C   0  0  0  0  0  0  0  0  0  0  0  0
    5.8644    0.1537    0.0000 C   0  0  0  0  0  0  0  0  0  0  0  0
    4.3644    0.1476    0.0000 C   0  0  0  0  0  0  0  0  0  0  0  0
    2.1092    1.4375    0.0000 C   0  0  0  0  0  0  0  0  0  0  0  0
  -12.1354    0.0807    0.0000 C   0  0  0  0  0  0  0  0  0  0  0  0
   -0.8803   -1.1727    0.0000 C   0  0  0  0  0  0  0  0  0  0  0  0
   -5.3908    1.4071    0.0000 C   0  0  0  0  0  0  0  0  0  0  0  0
  -11.3802   -1.2153    0.0000 C   0  0  0  0  0  0  0  0  0  0  0  0
    6.6197   -1.1423    0.0000 C   0  0  0  0  0  0  0  0  0  0  0  0
    3.6092    1.4436    0.0000 C   0  0  0  0  0  0  0  0  0  0  0  0
  -13.6354    0.0746    0.0000 C   0  0  0  0  0  0  0  0  0  0  0  0
   -9.8802   -1.2092    0.0000 C   0  0  0  0  0  0  0  0  0  0  0  0
    8.8644    0.1659    0.0000 C   0  0  0  0  0  0  0  0  0  0  0  0
   10.3644    0.1719    0.0000 C   0  0  0  0  0  0  0  0  0  0  0  0
    8.1197   -1.1362    0.0000 C   0  0  0  0  0  0  0  0  0  0  0  0
   -3.1250   -2.4809    0.0000 C   0  0  0  0  0  0  0  0  0  0  0  0
  -14.3907    1.3706    0.0000 C   0  0  0  0  0  0  0  0  0  0  0  0
  -15.8907    1.3645    0.0000 C   0  0  0  0  0  0  0  0  0  0  0  0
   -7.6460    2.6970    0.0000 C   0  0  0  0  0  0  0  0  0  0  0  0
    1.3539    2.7335    0.0000 C   0  0  0  0  0  0  0  0  0  0  0  0
   11.1091    1.4740    0.0000 C   0  0  0  0  0  0  0  0  0  0  0  0
  -16.6354    0.0624    0.0000 C   0  0  0  0  0  0  0  0  0  0  0  0
  -12.1249   -2.5174    0.0000 C   0  0  0  0  0  0  0  0  0  0  0  0
    5.8750   -2.4444    0.0000 C   0  0  0  0  0  0  0  0  0  0  0  0
  -18.1354    0.0564    0.0000 C   0  0  0  0  0  0  0  0  0  0  0  0
   12.6091    1.4801    0.0000 C   0  0  0  0  0  0  0  0  0  0  0  0
   13.3644    0.1841    0.0000 C   0  0  0  0  0  0  0  0  0  0  0  0
  -16.6459    2.6605    0.0000 C   0  0  0  0  0  0  0  0  0  0  0  0
   10.3539    2.7700    0.0000 C   0  0  0  0  0  0  0  0  0  0  0  0
   14.8644    0.1902    0.0000 C   0  0  0  0  0  0  0  0  0  0  0  0
  -18.8801   -1.2457    0.0000 C   0  0  0  0  0  0  0  0  0  0  0  0
  -20.3801   -1.2518    0.0000 C   0  0  0  0  0  0  0  0  0  0  0  0
   15.6091    1.4923    0.0000 C   0  0  0  0  0  0  0  0  0  0  0  0
   15.6196   -1.1058    0.0000 C   0  0  0  0  0  0  0  0  0  0  0  0
   17.1196   -1.0997    0.0000 C   0  0  0  0  0  0  0  0  0  0  0  0
   17.1091    1.4983    0.0000 C   0  0  0  0  0  0  0  0  0  0  0  0
  -21.1248   -2.5539    0.0000 C   0  0  0  0  0  0  0  0  0  0  0  0
  -21.1354    0.0442    0.0000 C   0  0  0  0  0  0  0  0  0  0  0  0
   17.8643    0.2024    0.0000 C   0  0  0  0  0  0  0  0  0  0  0  0
   17.8749   -2.3957    0.0000 C   0  0  0  0  0  0  0  0  0  0  0  0
  1 43  1  0
  2 50  1  0
  3 50  2  0
  4  6  1  0
  4  9  1  0
  5  8  1  0
  5 14  1  0
  6 17  1  0
  7 10  1  0
  7 11  1  0
  8 16  1  0
  9 16  2  3
  9 26  1  0
 10 22  1  0
 11 17  2  3
 11 29  1  0
 12 13  1  0
 12 19  1  0
 13 20  1  0
 14 20  2  3
 14 30  1  0
 15 18  1  0
 15 21  1  0
 18 22  2  3
 18 33  1  0
 19 25  2  3
 19 34  1  0
 21 27  1  0
 23 24  1  0
 23 25  1  0
 24 31  1  0
 27 28  2  3
 28 32  1  0
 28 38  1  0
 31 36  2  3
 31 39  1  0
 32 35  1  0
 35 41  1  0
 36 37  1  0
 37 40  1  0
 40 43  2  0
 40 44  1  0
 41 42  2  3
 42 47  1  0
 42 48  1  0
 43 46  1  0
 44 45  2  0
 45 49  1  0
 45 50  1  0
 46 49  2  0
M  END
>  <PUBCHEM_COMPOUND_CID>  (1) 
100

>  <PUBCHEM_COMPOUND_CANONICALIZED>  (1) 
1

>  <PUBCHEM_CACTVS_COMPLEXITY>  (1) 
1240

>  <PUBCHEM_CACTVS_HBOND_ACCEPTOR>  (1) 
3

>  <PUBCHEM_CACTVS_HBOND_DONOR>  (1) 
2

>  <PUBCHEM_CACTVS_ROTATABLE_BOND>  (1) 
24

>  <PUBCHEM_CACTVS_SUBSKEYS>  (1) 
AAADcfB8MAAAAAAAAAAAAAAAAAAAAAAAAAAwAAAAAAAAAAABAAAAGgAACAAADASAmAAyDoAAAgCIAiDSCAACAAAkIAAIiAEGCMgIJjKCFRKAcQAkwBEImYeI7OTOIAACAAAIAABAAAQAABAAAAAAAAAAAA==

>  <PUBCHEM_IUPAC_OPENEYE_NAME>  (1) 
4-hydroxy-3-(3,7,11,15,19,23,27,31-octamethyldotriaconta-2,6,10,14,18,22,26,30-octaenyl)benzoic acid

>  <PUBCHEM_IUPAC_CAS_NAME>  (1) 
4-hydroxy-3-(3,7,11,15,19,23,27,31-octamethyldotriaconta-2,6,10,14,18,22,26,30-octaenyl)benzoic acid

>  <PUBCHEM_IUPAC_NAME_MARKUP>  (1) 
4-hydroxy-3-(3,7,11,15,19,23,27,31-octamethyldotriaconta-2,6,10,14,18,22,26,30-octaenyl)benzoic acid

>  <PUBCHEM_IUPAC_NAME>  (1) 
4-hydroxy-3-(3,7,11,15,19,23,27,31-octamethyldotriaconta-2,6,10,14,18,22,26,30-octaenyl)benzoic acid

>  <PUBCHEM_IUPAC_SYSTEMATIC_NAME>  (1) 
3-(3,7,11,15,19,23,27,31-octamethyldotriaconta-2,6,10,14,18,22,26,30-octaenyl)-4-oxidanyl-benzoic acid

>  <PUBCHEM_IUPAC_TRADITIONAL_NAME>  (1) 
4-hydroxy-3-(3,7,11,15,19,23,27,31-octamethyldotriaconta-2,6,10,14,18,22,26,30-octaenyl)benzoic acid

>  <PUBCHEM_IUPAC_INCHI>  (1) 
InChI=1S/C47H70O3/c1-36(2)17-10-18-37(3)19-11-20-38(4)21-12-22-39(5)23-13-24-40(6)25-14-26-41(7)27-15-28-42(8)29-16-30-43(9)31-32-44-35-45(47(49)50)33-34-46(44)48/h17,19,21,23,25,27,29,31,33-35,48H,10-16,18,20,22,24,26,28,30,32H2,1-9H3,(H,49,50)

>  <PUBCHEM_IUPAC_INCHIKEY>  (1) 
UTIBHEBNILDQKX-UHFFFAOYSA-N

>  <PUBCHEM_XLOGP3_AA>  (1) 
16

>  <PUBCHEM_EXACT_MASS>  (1) 
682.532496

>  <PUBCHEM_MOLECULAR_FORMULA>  (1) 
C47H70O3

>  <PUBCHEM_MOLECULAR_WEIGHT>  (1) 
683.1

>  <PUBCHEM_OPENEYE_CAN_SMILES>  (1) 
CC(=CCCC(=CCCC(=CCCC(=CCCC(=CCCC(=CCCC(=CCCC(=CCC1=C(C=CC(=C1)C(=O)O)O)C)C)C)C)C)C)C)C

>  <PUBCHEM_OPENEYE_ISO_SMILES>  (1) 
CC(=CCCC(=CCCC(=CCCC(=CCCC(=CCCC(=CCCC(=CCCC(=CCC1=C(C=CC(=C1)C(=O)O)O)C)C)C)C)C)C)C)C

>  <PUBCHEM_CACTVS_TPSA>  (1) 
57.5

>  <PUBCHEM_MONOISOTOPIC_WEIGHT>  (1) 
682.532496

>  <PUBCHEM_TOTAL_CHARGE>  (1) 
0

>  <PUBCHEM_HEAVY_ATOM_COUNT>  (1) 
50

>  <PUBCHEM_ATOM_DEF_STEREO_COUNT>  (1) 
0

>  <PUBCHEM_ATOM_UDEF_STEREO_COUNT>  (1) 
0

>  <PUBCHEM_BOND_DEF_STEREO_COUNT>  (1) 
0

>  <PUBCHEM_BOND_UDEF_STEREO_COUNT>  (1) 
7

>  <PUBCHEM_ISOTOPIC_ATOM_COUNT>  (1) 
0

>  <PUBCHEM_COMPONENT_COUNT>  (1) 
1

>  <PUBCHEM_CACTVS_TAUTO_COUNT>  (1) 
-1

>  <PUBCHEM_COORDINATE_TYPE>  (1) 
1
5
255

>  <PUBCHEM_BONDANNOTATIONS>  (1) 
11  17  1
14  20  1
18  22  1
19  25  1
27  28  1
31  36  1
40  43  8
40  44  8
43  46  8
44  45  8
45  49  8
46  49  8
9  16  1

$$$$
