102
     RDKit          2D

  9  9  0  0  0  0  0  0  0  0999 V2000
    3.0839   -1.1257    0.0000 O   0  0  0  0  0  0  0  0  0  0  0  0
   -2.2557   -1.9848    0.0000 O   0  0  0  0  0  0  0  0  0  0  0  0
    0.9494    0.3555    0.0000 C   0  0  0  0  0  0  0  0  0  0  0  0
    0.0943   -0.8769    0.0000 C   0  0  0  0  0  0  0  0  0  0  0  0
    2.4443    0.2311    0.0000 C   0  0  0  0  0  0  0  0  0  0  0  0
    0.3098    1.7123    0.0000 C   0  0  0  0  0  0  0  0  0  0  0  0
   -1.4006   -0.7525    0.0000 C   0  0  0  0  0  0  0  0  0  0  0  0
   -1.1851    1.8367    0.0000 C   0  0  0  0  0  0  0  0  0  0  0  0
   -2.0402    0.6043    0.0000 C   0  0  0  0  0  0  0  0  0  0  0  0
  1  5  1  0
  2  7  1  0
  3  4  2  0
  3  5  1  0
  3  6  1  0
  4  7  1  0
  6  8  2  0
  7  9  2  0
  8  9  1  0
M  END
>  <PUBCHEM_COMPOUND_CID>  (1) 
102

>  <PUBCHEM_COMPOUND_CANONICALIZED>  (1) 
1

>  <PUBCHEM_CACTVS_COMPLEXITY>  (1) 
83

>  <PUBCHEM_CACTVS_HBOND_ACCEPTOR>  (1) 
2

>  <PUBCHEM_CACTVS_HBOND_DONOR>  (1) 
2

>  <PUBCHEM_CACTVS_ROTATABLE_BOND>  (1) 
1

>  <PUBCHEM_CACTVS_SUBSKEYS>  (1) 
AAADccBgMAAAAAAAAAAAAAAAAAAAAAAAAAAwAAAAAAAAAAABAAAAGgAACAAADASgmAIwBoAAAgCAAiBCAAACAAAgIAAIiAAGCIgINiKCERKAcAAkwBEImAfAwDAOAAABAAAAAAAAAAIAAAAAAAAAAAAAAA==

>  <PUBCHEM_IUPAC_OPENEYE_NAME>  (1) 
3-(hydroxymethyl)phenol

>  <PUBCHEM_IUPAC_CAS_NAME>  (1) 
3-(hydroxymethyl)phenol

>  <PUBCHEM_IUPAC_NAME_MARKUP>  (1) 
3-(hydroxymethyl)phenol

>  <PUBCHEM_IUPAC_NAME>  (1) 
3-(hydroxymethyl)phenol

>  <PUBCHEM_IUPAC_SYSTEMATIC_NAME>  (1) 
3-(hydroxymethyl)phenol

>  <PUBCHEM_IUPAC_TRADITIONAL_NAME>  (1) 
3-methylolphenol

>  <PUBCHEM_IUPAC_INCHI>  (1) 
InChI=1S/C7H8O2/c8-5-6-2-1-3-7(9)4-6/h1-4,8-9H,5H2

>  <PUBCHEM_IUPAC_INCHIKEY>  (1) 
OKVJCVWFVRATSG-UHFFFAOYSA-N

>  <PUBCHEM_XLOGP3>  (1) 
0.5

>  <PUBCHEM_EXACT_MASS>  (1) 
124.052429

>  <PUBCHEM_MOLECULAR_FORMULA>  (1) 
C7H8O2

>  <PUBCHEM_MOLECULAR_WEIGHT>  (1) 
124.14

>  <PUBCHEM_OPENEYE_CAN_SMILES>  (1) 
C1=CC(=CC(=C1)O)CO

>  <PUBCHEM_OPENEYE_ISO_SMILES>  (1) 
C1=CC(=CC(=C1)O)CO

>  <PUBCHEM_CACTVS_TPSA>  (1) 
40.5

>  <PUBCHEM_MONOISOTOPIC_WEIGHT>  (1) 
124.052429

>  <PUBCHEM_TOTAL_CHARGE>  (1) 
0

>  <PUBCHEM_HEAVY_ATOM_COUNT>  (1) 
9

>  <PUBCHEM_ATOM_DEF_STEREO_COUNT>  (1) 
0

>  <PUBCHEM_ATOM_UDEF_STEREO_COUNT>  (1) 
0

>  <PUBCHEM_BOND_DEF_STEREO_COUNT>  (1) 
0

>  <PUBCHEM_BOND_UDEF_STEREO_COUNT>  (1) 
0

>  <PUBCHEM_ISOTOPIC_ATOM_COUNT>  (1) 
0

>  <PUBCHEM_COMPONENT_COUNT>  (1) 
1

>  <PUBCHEM_CACTVS_TAUTO_COUNT>  (1) 
-1

>  <PUBCHEM_COORDINATE_TYPE>  (1) 
1
5
255

>  <PUBCHEM_BONDANNOTATIONS>  (1) 
3  4  8
3  6  8
4  7  8
6  8  8
7  9  8
8  9  8

$$$$
