107
     RDKit          2D

 11 11  0  0  0  0  0  0  0  0999 V2000
   -4.2089    1.1758    0.0000 O   0  0  0  0  0  0  0  0  0  0  0  0
   -3.6025   -1.3505    0.0000 O   0  0  0  0  0  0  0  0  0  0  0  0
   -0.6853   -0.6503    0.0000 C   0  0  0  0  0  0  0  0  0  0  0  0
    0.7732   -0.3002    0.0000 C   0  0  0  0  0  0  0  0  0  0  0  0
   -1.7178    0.4378    0.0000 C   0  0  0  0  0  0  0  0  0  0  0  0
    1.1993    1.1380    0.0000 C   0  0  0  0  0  0  0  0  0  0  0  0
    1.8057   -1.3883    0.0000 C   0  0  0  0  0  0  0  0  0  0  0  0
    2.6579    1.4881    0.0000 C   0  0  0  0  0  0  0  0  0  0  0  0
    3.2643   -1.0382    0.0000 C   0  0  0  0  0  0  0  0  0  0  0  0
   -3.1764    0.0877    0.0000 C   0  0  0  0  0  0  0  0  0  0  0  0
    3.6904    0.4000    0.0000 C   0  0  0  0  0  0  0  0  0  0  0  0
  1 10  1  0
  2 10  2  0
  3  4  1  0
  3  5  1  0
  4  6  2  0
  4  7  1  0
  5 10  1  0
  6  8  1  0
  7  9  2  0
  8 11  2  0
  9 11  1  0
M  END
>  <PUBCHEM_COMPOUND_CID>  (1) 
107

>  <PUBCHEM_COMPOUND_CANONICALIZED>  (1) 
1

>  <PUBCHEM_CACTVS_COMPLEXITY>  (1) 
126

>  <PUBCHEM_CACTVS_HBOND_ACCEPTOR>  (1) 
2

>  <PUBCHEM_CACTVS_HBOND_DONOR>  (1) 
1

>  <PUBCHEM_CACTVS_ROTATABLE_BOND>  (1) 
3

>  <PUBCHEM_CACTVS_SUBSKEYS>  (1) 
AAADccBwMAAAAAAAAAAAAAAAAAAAAAAAAAAwAAAAAAAAAAABAAAAGgAACAAADACAmAAwCIAAAgCIAiDSCAACAAAgAAAIiAEAAIgIIDKAERCAYAAkgAAIiAeIyKCOAAAAAAAAAAAAAAAAAAAAAAAAAAAAAA==

>  <PUBCHEM_IUPAC_OPENEYE_NAME>  (1) 
3-phenylpropanoic acid

>  <PUBCHEM_IUPAC_CAS_NAME>  (1) 
3-phenylpropanoic acid

>  <PUBCHEM_IUPAC_NAME_MARKUP>  (1) 
3-phenylpropanoic acid

>  <PUBCHEM_IUPAC_NAME>  (1) 
3-phenylpropanoic acid

>  <PUBCHEM_IUPAC_SYSTEMATIC_NAME>  (1) 
3-phenylpropanoic acid

>  <PUBCHEM_IUPAC_TRADITIONAL_NAME>  (1) 
hydrocinnamic acid

>  <PUBCHEM_IUPAC_INCHI>  (1) 
InChI=1S/C9H10O2/c10-9(11)7-6-8-4-2-1-3-5-8/h1-5H,6-7H2,(H,10,11)

>  <PUBCHEM_IUPAC_INCHIKEY>  (1) 
XMIIGOLPHOKFCH-UHFFFAOYSA-N

>  <PUBCHEM_XLOGP3>  (1) 
1.8

>  <PUBCHEM_EXACT_MASS>  (1) 
150.06808

>  <PUBCHEM_MOLECULAR_FORMULA>  (1) 
C9H10O2

>  <PUBCHEM_MOLECULAR_WEIGHT>  (1) 
150.17

>  <PUBCHEM_OPENEYE_CAN_SMILES>  (1) 
C1=CC=C(C=C1)CCC(=O)O

>  <PUBCHEM_OPENEYE_ISO_SMILES>  (1) 
C1=CC=C(C=C1)CCC(=O)O

>  <PUBCHEM_CACTVS_TPSA>  (1) 
37.3

>  <PUBCHEM_MONOISOTOPIC_WEIGHT>  (1) 
150.06808

>  <PUBCHEM_TOTAL_CHARGE>  (1) 
0

>  <PUBCHEM_HEAVY_ATOM_COUNT>  (1) 
11

>  <PUBCHEM_ATOM_DEF_STEREO_COUNT>  (1) 
0

>  <PUBCHEM_ATOM_UDEF_STEREO_COUNT>  (1) 
0

>  <PUBCHEM_BOND_DEF_STEREO_COUNT>  (1) 
0

>  <PUBCHEM_BOND_UDEF_STEREO_COUNT>  (1) 
0

>  <PUBCHEM_ISOTOPIC_ATOM_COUNT>  (1) 
0

>  <PUBCHEM_COMPONENT_COUNT>  (1) 
1

>  <PUBCHEM_CACTVS_TAUTO_COUNT>  (1) 
-1

>  <PUBCHEM_COORDINATE_TYPE>  (1) 
1
5
255

>  <PUBCHEM_BONDANNOTATIONS>  (1) 
4  6  8
4  7  8
6  8  8
7  9  8
8  11  8
9  11  8

$$$$
