108
     RDKit          2D

 10 10  0  0  0  0  0  0  0  0999 V2000
   -3.7985   -0.4910    0.0000 O   0  0  0  0  0  0  0  0  0  0  0  0
   -2.0977    1.4730    0.0000 O   0  0  0  0  0  0  0  0  0  0  0  0
    2.7213   -0.9820    0.0000 N   0  0  0  0  0  0  0  0  0  0  0  0
    0.1701   -0.4910    0.0000 C   0  0  0  0  0  0  0  0  0  0  0  0
   -1.2473   -0.9820    0.0000 C   0  0  0  0  0  0  0  0  0  0  0  0
    0.4536    0.9820    0.0000 C   0  0  0  0  0  0  0  0  0  0  0  0
    1.3040   -1.4730    0.0000 C   0  0  0  0  0  0  0  0  0  0  0  0
    1.8709    1.4730    0.0000 C   0  0  0  0  0  0  0  0  0  0  0  0
   -2.3812    0.0000    0.0000 C   0  0  0  0  0  0  0  0  0  0  0  0
    3.0048    0.4910    0.0000 C   0  0  0  0  0  0  0  0  0  0  0  0
  1  9  1  0
  2  9  2  0
  3  7  2  0
  3 10  1  0
  4  5  1  0
  4  6  2  0
  4  7  1  0
  5  9  1  0
  6  8  1  0
  8 10  2  0
M  END
>  <PUBCHEM_COMPOUND_CID>  (1) 
108

>  <PUBCHEM_COMPOUND_CANONICALIZED>  (1) 
1

>  <PUBCHEM_CACTVS_COMPLEXITY>  (1) 
125

>  <PUBCHEM_CACTVS_HBOND_ACCEPTOR>  (1) 
3

>  <PUBCHEM_CACTVS_HBOND_DONOR>  (1) 
1

>  <PUBCHEM_CACTVS_ROTATABLE_BOND>  (1) 
2

>  <PUBCHEM_CACTVS_SUBSKEYS>  (1) 
AAADcYBiMAAAAAAAAAAAAAAAAAAAAAAAAAAsAAAAAAAAAAABgAAAHgAACAAADADBmgQ8iJIIEgCoAjD3TACCgCAxAiAI2CE4ZJgIIPLAlZGEYAhkwAHIyAe8SAAOAAAAAAAAAAAAAAAAAAAAAAAAAAAAAA==

>  <PUBCHEM_IUPAC_OPENEYE_NAME>  (1) 
2-(3-pyridyl)acetic acid

>  <PUBCHEM_IUPAC_CAS_NAME>  (1) 
2-(3-pyridinyl)acetic acid

>  <PUBCHEM_IUPAC_NAME_MARKUP>  (1) 
2-pyridin-3-ylacetic acid

>  <PUBCHEM_IUPAC_NAME>  (1) 
2-pyridin-3-ylacetic acid

>  <PUBCHEM_IUPAC_SYSTEMATIC_NAME>  (1) 
2-pyridin-3-ylethanoic acid

>  <PUBCHEM_IUPAC_TRADITIONAL_NAME>  (1) 
2-(3-pyridyl)acetic acid

>  <PUBCHEM_IUPAC_INCHI>  (1) 
InChI=1S/C7H7NO2/c9-7(10)4-6-2-1-3-8-5-6/h1-3,5H,4H2,(H,9,10)

>  <PUBCHEM_IUPAC_INCHIKEY>  (1) 
WGNUNYPERJMVRM-UHFFFAOYSA-N

>  <PUBCHEM_XLOGP3>  (1) 
-0.1

>  <PUBCHEM_EXACT_MASS>  (1) 
137.047678

>  <PUBCHEM_MOLECULAR_FORMULA>  (1) 
C7H7NO2

>  <PUBCHEM_MOLECULAR_WEIGHT>  (1) 
137.14

>  <PUBCHEM_OPENEYE_CAN_SMILES>  (1) 
C1=CC(=CN=C1)CC(=O)O

>  <PUBCHEM_OPENEYE_ISO_SMILES>  (1) 
C1=CC(=CN=C1)CC(=O)O

>  <PUBCHEM_CACTVS_TPSA>  (1) 
50.2

>  <PUBCHEM_MONOISOTOPIC_WEIGHT>  (1) 
137.047678

>  <PUBCHEM_TOTAL_CHARGE>  (1) 
0

>  <PUBCHEM_HEAVY_ATOM_COUNT>  (1) 
10

>  <PUBCHEM_ATOM_DEF_STEREO_COUNT>  (1) 
0

>  <PUBCHEM_ATOM_UDEF_STEREO_COUNT>  (1) 
0

>  <PUBCHEM_BOND_DEF_STEREO_COUNT>  (1) 
0

>  <PUBCHEM_BOND_UDEF_STEREO_COUNT>  (1) 
0

>  <PUBCHEM_ISOTOPIC_ATOM_COUNT>  (1) 
0

>  <PUBCHEM_COMPONENT_COUNT>  (1) 
1

>  <PUBCHEM_CACTVS_TAUTO_COUNT>  (1) 
-1

>  <PUBCHEM_COORDINATE_TYPE>  (1) 
1
5
255

>  <PUBCHEM_BONDANNOTATIONS>  (1) 
3  10  8
3  7  8
4  6  8
4  7  8
6  8  8
8  10  8

$$$$
