114
     RDKit          2D

 12 12  0  0  0  0  0  0  0  0999 V2000
   -5.1779   -0.4527    0.0000 O   0  0  0  0  0  0  0  0  0  0  0  0
   -3.6216    1.6277    0.0000 O   0  0  0  0  0  0  0  0  0  0  0  0
    3.9402   -0.7845    0.0000 N   0  0  0  0  0  0  0  0  0  0  0  0
   -1.2194   -0.1693    0.0000 C   0  0  0  0  0  0  0  0  0  0  0  0
   -0.0183   -1.0678    0.0000 C   0  0  0  0  0  0  0  0  0  0  0  0
   -2.5981   -0.7603    0.0000 C   0  0  0  0  0  0  0  0  0  0  0  0
    1.3604   -0.4769    0.0000 C   0  0  0  0  0  0  0  0  0  0  0  0
    1.5380    1.0126    0.0000 C   0  0  0  0  0  0  0  0  0  0  0  0
    2.5615   -1.3754    0.0000 C   0  0  0  0  0  0  0  0  0  0  0  0
   -3.7992    0.1382    0.0000 C   0  0  0  0  0  0  0  0  0  0  0  0
    2.9167    1.6035    0.0000 C   0  0  0  0  0  0  0  0  0  0  0  0
    4.1178    0.7050    0.0000 C   0  0  0  0  0  0  0  0  0  0  0  0
  1 10  1  0
  2 10  2  0
  3  9  2  0
  3 12  1  0
  4  5  1  0
  4  6  1  0
  5  7  1  0
  6 10  1  0
  7  8  2  0
  7  9  1  0
  8 11  1  0
 11 12  2  0
M  END
>  <PUBCHEM_COMPOUND_CID>  (1) 
114

>  <PUBCHEM_COMPOUND_CANONICALIZED>  (1) 
1

>  <PUBCHEM_CACTVS_COMPLEXITY>  (1) 
148

>  <PUBCHEM_CACTVS_HBOND_ACCEPTOR>  (1) 
3

>  <PUBCHEM_CACTVS_HBOND_DONOR>  (1) 
1

>  <PUBCHEM_CACTVS_ROTATABLE_BOND>  (1) 
4

>  <PUBCHEM_CACTVS_SUBSKEYS>  (1) 
AAADccByMAAAAAAAAAAAAAAAAAAAAAAAAAAsAAAAAAAAAAABgAAAHgAACAAADADBmgQ8iJIIEgCoAjD3TACCgCAxAiAI2CE4ZJgIIPLAkZGEYAhkgADIyAeYyLCOAAAAAAAAAAAAAAAAAAAAAAAAAAAAAA==

>  <PUBCHEM_IUPAC_OPENEYE_NAME>  (1) 
4-(3-pyridyl)butanoic acid

>  <PUBCHEM_IUPAC_CAS_NAME>  (1) 
4-(3-pyridinyl)butanoic acid

>  <PUBCHEM_IUPAC_NAME_MARKUP>  (1) 
4-pyridin-3-ylbutanoic acid

>  <PUBCHEM_IUPAC_NAME>  (1) 
4-pyridin-3-ylbutanoic acid

>  <PUBCHEM_IUPAC_SYSTEMATIC_NAME>  (1) 
4-pyridin-3-ylbutanoic acid

>  <PUBCHEM_IUPAC_TRADITIONAL_NAME>  (1) 
4-(3-pyridyl)butyric acid

>  <PUBCHEM_IUPAC_INCHI>  (1) 
InChI=1S/C9H11NO2/c11-9(12)5-1-3-8-4-2-6-10-7-8/h2,4,6-7H,1,3,5H2,(H,11,12)

>  <PUBCHEM_IUPAC_INCHIKEY>  (1) 
MFYZACBRKCFXDV-UHFFFAOYSA-N

>  <PUBCHEM_XLOGP3>  (1) 
0.6

>  <PUBCHEM_EXACT_MASS>  (1) 
165.078979

>  <PUBCHEM_MOLECULAR_FORMULA>  (1) 
C9H11NO2

>  <PUBCHEM_MOLECULAR_WEIGHT>  (1) 
165.19

>  <PUBCHEM_OPENEYE_CAN_SMILES>  (1) 
C1=CC(=CN=C1)CCCC(=O)O

>  <PUBCHEM_OPENEYE_ISO_SMILES>  (1) 
C1=CC(=CN=C1)CCCC(=O)O

>  <PUBCHEM_CACTVS_TPSA>  (1) 
50.2

>  <PUBCHEM_MONOISOTOPIC_WEIGHT>  (1) 
165.078979

>  <PUBCHEM_TOTAL_CHARGE>  (1) 
0

>  <PUBCHEM_HEAVY_ATOM_COUNT>  (1) 
12

>  <PUBCHEM_ATOM_DEF_STEREO_COUNT>  (1) 
0

>  <PUBCHEM_ATOM_UDEF_STEREO_COUNT>  (1) 
0

>  <PUBCHEM_BOND_DEF_STEREO_COUNT>  (1) 
0

>  <PUBCHEM_BOND_UDEF_STEREO_COUNT>  (1) 
0

>  <PUBCHEM_ISOTOPIC_ATOM_COUNT>  (1) 
0

>  <PUBCHEM_COMPONENT_COUNT>  (1) 
1

>  <PUBCHEM_CACTVS_TAUTO_COUNT>  (1) 
-1

>  <PUBCHEM_COORDINATE_TYPE>  (1) 
1
5
255

>  <PUBCHEM_BONDANNOTATIONS>  (1) 
11  12  8
3  12  8
3  9  8
7  8  8
7  9  8
8  11  8

$$$$
