118
     RDKit          2D

  6  5  0  0  0  0  0  0  0  0999 V2000
    3.2624    0.2097    0.0000 O   0  0  0  0  0  0  0  0  0  0  0  0
   -3.2624   -0.2097    0.0000 N   0  0  0  0  0  0  0  0  0  0  0  0
   -0.6677   -0.3416    0.0000 C   0  0  0  0  0  0  0  0  0  0  0  0
   -1.9270    0.4734    0.0000 C   0  0  0  0  0  0  0  0  0  0  0  0
    0.6677    0.3416    0.0000 C   0  0  0  0  0  0  0  0  0  0  0  0
    1.9270   -0.4734    0.0000 C   0  0  0  0  0  0  0  0  0  0  0  0
  1  6  2  0
  2  4  1  0
  3  4  1  0
  3  5  1  0
  5  6  1  0
M  END
>  <PUBCHEM_COMPOUND_CID>  (1) 
118

>  <PUBCHEM_COMPOUND_CANONICALIZED>  (1) 
1

>  <PUBCHEM_CACTVS_COMPLEXITY>  (1) 
36.5

>  <PUBCHEM_CACTVS_HBOND_ACCEPTOR>  (1) 
2

>  <PUBCHEM_CACTVS_HBOND_DONOR>  (1) 
1

>  <PUBCHEM_CACTVS_ROTATABLE_BOND>  (1) 
3

>  <PUBCHEM_CACTVS_SUBSKEYS>  (1) 
AAADccBiIAAAAAAAAAAAAAAAAAAAAAAAAAAAAAAAAAAAAAAAAAAAHgAQAAAACADhgAYAAABAAAAIAAgQgAAAAAAAAAAAAIEAAAAAABAAgAAAAAAAEAAAAAAEAAAAAAAAAAAAAAAAAAAAAAAAAAAAAAAAAA==

>  <PUBCHEM_IUPAC_OPENEYE_NAME>  (1) 
4-aminobutanal

>  <PUBCHEM_IUPAC_CAS_NAME>  (1) 
4-aminobutanal

>  <PUBCHEM_IUPAC_NAME_MARKUP>  (1) 
4-aminobutanal

>  <PUBCHEM_IUPAC_NAME>  (1) 
4-aminobutanal

>  <PUBCHEM_IUPAC_SYSTEMATIC_NAME>  (1) 
4-azanylbutanal

>  <PUBCHEM_IUPAC_TRADITIONAL_NAME>  (1) 
4-aminobutyraldehyde

>  <PUBCHEM_IUPAC_INCHI>  (1) 
InChI=1S/C4H9NO/c5-3-1-2-4-6/h4H,1-3,5H2

>  <PUBCHEM_IUPAC_INCHIKEY>  (1) 
DZQLQEYLEYWJIB-UHFFFAOYSA-N

>  <PUBCHEM_XLOGP3_AA>  (1) 
-0.9

>  <PUBCHEM_EXACT_MASS>  (1) 
87.068414

>  <PUBCHEM_MOLECULAR_FORMULA>  (1) 
C4H9NO

>  <PUBCHEM_MOLECULAR_WEIGHT>  (1) 
87.12

>  <PUBCHEM_OPENEYE_CAN_SMILES>  (1) 
C(CC=O)CN

>  <PUBCHEM_OPENEYE_ISO_SMILES>  (1) 
C(CC=O)CN

>  <PUBCHEM_CACTVS_TPSA>  (1) 
43.1

>  <PUBCHEM_MONOISOTOPIC_WEIGHT>  (1) 
87.068414

>  <PUBCHEM_TOTAL_CHARGE>  (1) 
0

>  <PUBCHEM_HEAVY_ATOM_COUNT>  (1) 
6

>  <PUBCHEM_ATOM_DEF_STEREO_COUNT>  (1) 
0

>  <PUBCHEM_ATOM_UDEF_STEREO_COUNT>  (1) 
0

>  <PUBCHEM_BOND_DEF_STEREO_COUNT>  (1) 
0

>  <PUBCHEM_BOND_UDEF_STEREO_COUNT>  (1) 
0

>  <PUBCHEM_ISOTOPIC_ATOM_COUNT>  (1) 
0

>  <PUBCHEM_COMPONENT_COUNT>  (1) 
1

>  <PUBCHEM_CACTVS_TAUTO_COUNT>  (1) 
-1

>  <PUBCHEM_COORDINATE_TYPE>  (1) 
1
5
255

$$$$
