12
     RDKit          2D

 10 10  0  0  0  0  0  0  0  0999 V2000
    2.7000    0.0000    0.0000 O   0  0  0  0  0  0  0  0  0  0  0  0
    1.2000   -2.5981    0.0000 O   0  0  0  0  0  0  0  0  0  0  0  0
    1.2000    2.5981    0.0000 O   0  0  0  0  0  0  0  0  0  0  0  0
   -3.3000    0.0000    0.0000 O   0  0  0  0  0  0  0  0  0  0  0  0
    1.2000    0.0000    0.0000 C   0  0  0  0  0  0  0  0  0  0  0  0
    0.4500   -1.2990    0.0000 C   0  0  0  0  0  0  0  0  0  0  0  0
    0.4500    1.2990    0.0000 C   0  0  0  0  0  0  0  0  0  0  0  0
   -1.8000    0.0000    0.0000 C   0  0  0  0  0  0  0  0  0  0  0  0
   -1.0500   -1.2990    0.0000 C   0  0  0  0  0  0  0  0  0  0  0  0
   -1.0500    1.2990    0.0000 C   0  0  0  0  0  0  0  0  0  0  0  0
  1  5  1  0
  2  6  1  0
  3  7  1  0
  4  8  1  0
  5  6  2  0
  5  7  1  0
  6  9  1  0
  7 10  2  0
  8  9  2  0
  8 10  1  0
M  END
>  <PUBCHEM_COMPOUND_CID>  (1) 
12

>  <PUBCHEM_COMPOUND_CANONICALIZED>  (1) 
1

>  <PUBCHEM_CACTVS_COMPLEXITY>  (1) 
104

>  <PUBCHEM_CACTVS_HBOND_ACCEPTOR>  (1) 
4

>  <PUBCHEM_CACTVS_HBOND_DONOR>  (1) 
4

>  <PUBCHEM_CACTVS_ROTATABLE_BOND>  (1) 
0

>  <PUBCHEM_CACTVS_SUBSKEYS>  (1) 
AAADcYBgOAAAAAAAAAAAAAAAAAAAAAAAAAAwAAAAAAAAAAABAAAAGgAACAAACASAkAAwBoAAAgCAACBCAAACAAAgIAAAiAAGiIgJJyKCERKAcAElwBUJmAfAYAQAAQAACAAAQAACAAAQAACAAAAAAAAAAA==

>  <PUBCHEM_IUPAC_OPENEYE_NAME>  (1) 
benzene-1,2,3,5-tetrol

>  <PUBCHEM_IUPAC_CAS_NAME>  (1) 
benzene-1,2,3,5-tetrol

>  <PUBCHEM_IUPAC_NAME_MARKUP>  (1) 
benzene-1,2,3,5-tetrol

>  <PUBCHEM_IUPAC_NAME>  (1) 
benzene-1,2,3,5-tetrol

>  <PUBCHEM_IUPAC_SYSTEMATIC_NAME>  (1) 
benzene-1,2,3,5-tetrol

>  <PUBCHEM_IUPAC_TRADITIONAL_NAME>  (1) 
benzene-1,2,3,5-tetrol

>  <PUBCHEM_IUPAC_INCHI>  (1) 
InChI=1S/C6H6O4/c7-3-1-4(8)6(10)5(9)2-3/h1-2,7-10H

>  <PUBCHEM_IUPAC_INCHIKEY>  (1) 
RDJUHLUBPADHNP-UHFFFAOYSA-N

>  <PUBCHEM_XLOGP3>  (1) 
0.8

>  <PUBCHEM_EXACT_MASS>  (1) 
142.026609

>  <PUBCHEM_MOLECULAR_FORMULA>  (1) 
C6H6O4

>  <PUBCHEM_MOLECULAR_WEIGHT>  (1) 
142.11

>  <PUBCHEM_OPENEYE_CAN_SMILES>  (1) 
C1=C(C=C(C(=C1O)O)O)O

>  <PUBCHEM_OPENEYE_ISO_SMILES>  (1) 
C1=C(C=C(C(=C1O)O)O)O

>  <PUBCHEM_CACTVS_TPSA>  (1) 
80.9

>  <PUBCHEM_MONOISOTOPIC_WEIGHT>  (1) 
142.026609

>  <PUBCHEM_TOTAL_CHARGE>  (1) 
0

>  <PUBCHEM_HEAVY_ATOM_COUNT>  (1) 
10

>  <PUBCHEM_ATOM_DEF_STEREO_COUNT>  (1) 
0

>  <PUBCHEM_ATOM_UDEF_STEREO_COUNT>  (1) 
0

>  <PUBCHEM_BOND_DEF_STEREO_COUNT>  (1) 
0

>  <PUBCHEM_BOND_UDEF_STEREO_COUNT>  (1) 
0

>  <PUBCHEM_ISOTOPIC_ATOM_COUNT>  (1) 
0

>  <PUBCHEM_COMPONENT_COUNT>  (1) 
1

>  <PUBCHEM_CACTVS_TAUTO_COUNT>  (1) 
-1

>  <PUBCHEM_COORDINATE_TYPE>  (1) 
1
5
255

>  <PUBCHEM_BONDANNOTATIONS>  (1) 
5  6  8
5  7  8
6  9  8
7  10  8
8  10  8
8  9  8

$$$$
