120
     RDKit          2D

 10 10  0  0  0  0  0  0  0  0999 V2000
   -0.6871   -0.6604    0.0000 O   0  0  0  0  0  0  0  0  0  0  0  0
   -3.2141   -1.5316    0.0000 O   0  0  0  0  0  0  0  0  0  0  0  0
    3.8888    0.0615    0.0000 O   0  0  0  0  0  0  0  0  0  0  0  0
    1.8992   -1.6093    0.0000 O   0  0  0  0  0  0  0  0  0  0  0  0
   -0.0300    0.6881    0.0000 C   0  0  0  0  0  0  0  0  0  0  0  0
   -1.1095    1.7296    0.0000 C   0  0  0  0  0  0  0  0  0  0  0  0
   -2.4336    1.0249    0.0000 C   0  0  0  0  0  0  0  0  0  0  0  0
    1.4471    0.9491    0.0000 C   0  0  0  0  0  0  0  0  0  0  0  0
   -2.1725   -0.4522    0.0000 C   0  0  0  0  0  0  0  0  0  0  0  0
    2.4117   -0.1996    0.0000 C   0  0  0  0  0  0  0  0  0  0  0  0
  1  5  1  0
  1  9  1  0
  2  9  2  0
  3 10  1  0
  4 10  2  0
  5  6  1  0
  5  8  2  3
  6  7  2  0
  7  9  1  0
  8 10  1  0
M  END
>  <PUBCHEM_COMPOUND_CID>  (1) 
120

>  <PUBCHEM_COMPOUND_CANONICALIZED>  (1) 
1

>  <PUBCHEM_CACTVS_COMPLEXITY>  (1) 
236

>  <PUBCHEM_CACTVS_HBOND_ACCEPTOR>  (1) 
4

>  <PUBCHEM_CACTVS_HBOND_DONOR>  (1) 
1

>  <PUBCHEM_CACTVS_ROTATABLE_BOND>  (1) 
1

>  <PUBCHEM_CACTVS_SUBSKEYS>  (1) 
AAADcYBgOAAAAAAAAAAAAAAAAAAAAQAAAAAAAAAAAAAAAAAAAAAAGgAACAAACASAgAAACAAABgCIACDSCAAACAAAIAAICAAAAEAIBAAAIQACEAAAAAAAsYAAAAAAAAAAAAAAAAAAAAAAAAAAAAAAAAAAAA==

>  <PUBCHEM_IUPAC_OPENEYE_NAME>  (1) 
2-(5-oxo-2-furylidene)acetic acid

>  <PUBCHEM_IUPAC_CAS_NAME>  (1) 
2-(5-oxo-2-furanylidene)acetic acid

>  <PUBCHEM_IUPAC_NAME_MARKUP>  (1) 
2-(5-oxofuran-2-ylidene)acetic acid

>  <PUBCHEM_IUPAC_NAME>  (1) 
2-(5-oxofuran-2-ylidene)acetic acid

>  <PUBCHEM_IUPAC_SYSTEMATIC_NAME>  (1) 
2-(5-oxidanylidenefuran-2-ylidene)ethanoic acid

>  <PUBCHEM_IUPAC_TRADITIONAL_NAME>  (1) 
2-(5-keto-2-furylidene)acetic acid

>  <PUBCHEM_IUPAC_INCHI>  (1) 
InChI=1S/C6H4O4/c7-5(8)3-4-1-2-6(9)10-4/h1-3H,(H,7,8)

>  <PUBCHEM_IUPAC_INCHIKEY>  (1) 
AYFXPGXAZMFWNH-UHFFFAOYSA-N

>  <PUBCHEM_XLOGP3_AA>  (1) 
0

>  <PUBCHEM_EXACT_MASS>  (1) 
140.010959

>  <PUBCHEM_MOLECULAR_FORMULA>  (1) 
C6H4O4

>  <PUBCHEM_MOLECULAR_WEIGHT>  (1) 
140.09

>  <PUBCHEM_OPENEYE_CAN_SMILES>  (1) 
C1=CC(=O)OC1=CC(=O)O

>  <PUBCHEM_OPENEYE_ISO_SMILES>  (1) 
C1=CC(=O)OC1=CC(=O)O

>  <PUBCHEM_CACTVS_TPSA>  (1) 
63.6

>  <PUBCHEM_MONOISOTOPIC_WEIGHT>  (1) 
140.010959

>  <PUBCHEM_TOTAL_CHARGE>  (1) 
0

>  <PUBCHEM_HEAVY_ATOM_COUNT>  (1) 
10

>  <PUBCHEM_ATOM_DEF_STEREO_COUNT>  (1) 
0

>  <PUBCHEM_ATOM_UDEF_STEREO_COUNT>  (1) 
0

>  <PUBCHEM_BOND_DEF_STEREO_COUNT>  (1) 
0

>  <PUBCHEM_BOND_UDEF_STEREO_COUNT>  (1) 
1

>  <PUBCHEM_ISOTOPIC_ATOM_COUNT>  (1) 
0

>  <PUBCHEM_COMPONENT_COUNT>  (1) 
1

>  <PUBCHEM_CACTVS_TAUTO_COUNT>  (1) 
-1

>  <PUBCHEM_COORDINATE_TYPE>  (1) 
1
5
255

>  <PUBCHEM_BONDANNOTATIONS>  (1) 
5  8  1

$$$$
