122
     RDKit          2D

 14 13  0  0  0  0  0  0  0  0999 V2000
    2.0026    1.4201    0.0000 O   0  0  0  0  0  0  0  0  0  0  0  0
   -0.5833    1.6714    0.0000 O   0  0  0  0  0  0  0  0  0  0  0  0
    5.6637   -1.1964    0.0000 O   0  0  0  0  0  0  0  0  0  0  0  0
    4.5884    1.1687    0.0000 O   0  0  0  0  0  0  0  0  0  0  0  0
   -5.9002    0.6812    0.0000 O   0  0  0  0  0  0  0  0  0  0  0  0
   -4.8250   -1.6839    0.0000 O   0  0  0  0  0  0  0  0  0  0  0  0
    0.4919   -0.6937    0.0000 C   0  0  0  0  0  0  0  0  0  0  0  0
    1.8574   -0.0729    0.0000 C   0  0  0  0  0  0  0  0  0  0  0  0
    3.0778   -0.9451    0.0000 C   0  0  0  0  0  0  0  0  0  0  0  0
   -0.7285    0.1785    0.0000 C   0  0  0  0  0  0  0  0  0  0  0  0
   -2.0940   -0.4423    0.0000 C   0  0  0  0  0  0  0  0  0  0  0  0
    4.4433   -0.3243    0.0000 C   0  0  0  0  0  0  0  0  0  0  0  0
   -3.3143    0.4298    0.0000 C   0  0  0  0  0  0  0  0  0  0  0  0
   -4.6799   -0.1910    0.0000 C   0  0  0  0  0  0  0  0  0  0  0  0
  1  8  2  0
  2 10  2  0
  3 12  1  0
  4 12  2  0
  5 14  1  0
  6 14  2  0
  7  8  1  0
  7 10  1  0
  8  9  1  0
  9 12  1  0
 10 11  1  0
 11 13  2  3
 13 14  1  0
M  END
>  <PUBCHEM_COMPOUND_CID>  (1) 
122

>  <PUBCHEM_COMPOUND_CANONICALIZED>  (1) 
1

>  <PUBCHEM_CACTVS_COMPLEXITY>  (1) 
301

>  <PUBCHEM_CACTVS_HBOND_ACCEPTOR>  (1) 
6

>  <PUBCHEM_CACTVS_HBOND_DONOR>  (1) 
2

>  <PUBCHEM_CACTVS_ROTATABLE_BOND>  (1) 
6

>  <PUBCHEM_CACTVS_SUBSKEYS>  (1) 
AAADccBwOAAAAAAAAAAAAAAAAAAAAAAAAAAAAAAAAAAAAAAAAAAAGgAACAAACASAgAAACAAAAgCIAKDSCAAAAAAgAAAICAEAAEgABBYIAAAAUAAEoAAIEYOITgAgAAAAAAAAAAAAAAAAAAAAAAAAAAAAAA==

>  <PUBCHEM_IUPAC_OPENEYE_NAME>  (1) 
4,6-dioxooct-2-enedioic acid

>  <PUBCHEM_IUPAC_CAS_NAME>  (1) 
4,6-dioxo-2-octenedioic acid

>  <PUBCHEM_IUPAC_NAME_MARKUP>  (1) 
4,6-dioxooct-2-enedioic acid

>  <PUBCHEM_IUPAC_NAME>  (1) 
4,6-dioxooct-2-enedioic acid

>  <PUBCHEM_IUPAC_SYSTEMATIC_NAME>  (1) 
4,6-bis(oxidanylidene)oct-2-enedioic acid

>  <PUBCHEM_IUPAC_TRADITIONAL_NAME>  (1) 
4,6-diketooct-2-enedioic acid

>  <PUBCHEM_IUPAC_INCHI>  (1) 
InChI=1S/C8H8O6/c9-5(1-2-7(11)12)3-6(10)4-8(13)14/h1-2H,3-4H2,(H,11,12)(H,13,14)

>  <PUBCHEM_IUPAC_INCHIKEY>  (1) 
GACSIVHAIFQKTC-UHFFFAOYSA-N

>  <PUBCHEM_XLOGP3_AA>  (1) 
-0.7

>  <PUBCHEM_EXACT_MASS>  (1) 
200.032088

>  <PUBCHEM_MOLECULAR_FORMULA>  (1) 
C8H8O6

>  <PUBCHEM_MOLECULAR_WEIGHT>  (1) 
200.14

>  <PUBCHEM_OPENEYE_CAN_SMILES>  (1) 
C(C(=O)CC(=O)O)C(=O)C=CC(=O)O

>  <PUBCHEM_OPENEYE_ISO_SMILES>  (1) 
C(C(=O)CC(=O)O)C(=O)C=CC(=O)O

>  <PUBCHEM_CACTVS_TPSA>  (1) 
109

>  <PUBCHEM_MONOISOTOPIC_WEIGHT>  (1) 
200.032088

>  <PUBCHEM_TOTAL_CHARGE>  (1) 
0

>  <PUBCHEM_HEAVY_ATOM_COUNT>  (1) 
14

>  <PUBCHEM_ATOM_DEF_STEREO_COUNT>  (1) 
0

>  <PUBCHEM_ATOM_UDEF_STEREO_COUNT>  (1) 
0

>  <PUBCHEM_BOND_DEF_STEREO_COUNT>  (1) 
0

>  <PUBCHEM_BOND_UDEF_STEREO_COUNT>  (1) 
1

>  <PUBCHEM_ISOTOPIC_ATOM_COUNT>  (1) 
0

>  <PUBCHEM_COMPONENT_COUNT>  (1) 
1

>  <PUBCHEM_CACTVS_TAUTO_COUNT>  (1) 
-1

>  <PUBCHEM_COORDINATE_TYPE>  (1) 
1
5
255

>  <PUBCHEM_BONDANNOTATIONS>  (1) 
11  13  1

$$$$
