128
     RDKit          2D

 11 11  0  0  1  0  0  0  0  0999 V2000
   -2.1863    2.2719    0.0000 O   0  0  0  0  0  0  0  0  0  0  0  0
    4.2010   -1.0188    0.0000 O   0  0  0  0  0  0  0  0  0  0  0  0
    3.3317    1.4295    0.0000 O   0  0  0  0  0  0  0  0  0  0  0  0
   -1.3338   -1.5147    0.0000 N   0  0  0  0  0  0  0  0  0  0  0  0
   -3.3351   -0.1417    0.0000 N   0  0  0  0  0  0  0  0  0  0  0  0
   -0.9089   -0.0761    0.0000 C   0  0  0  0  0  0  0  0  0  0  0  0
    0.5046    0.4257    0.0000 C   0  0  0  0  0  0  0  0  0  0  0  0
    1.6460   -0.5475    0.0000 C   0  0  0  0  0  0  0  0  0  0  0  0
   -2.1458    0.7725    0.0000 C   0  0  0  0  0  0  0  0  0  0  0  0
   -2.8332   -1.5552    0.0000 C   0  0  0  0  0  0  0  0  0  0  0  0
    3.0596   -0.0456    0.0000 C   0  0  0  0  0  0  0  0  0  0  0  0
  1  9  2  0
  2 11  1  0
  3 11  2  0
  4  6  1  0
  4 10  2  0
  5  9  1  0
  5 10  1  0
  6  7  1  0
  6  9  1  0
  7  8  1  0
  8 11  1  0
M  END
>  <PUBCHEM_COMPOUND_CID>  (1) 
128

>  <PUBCHEM_COMPOUND_CANONICALIZED>  (1) 
1

>  <PUBCHEM_CACTVS_COMPLEXITY>  (1) 
212

>  <PUBCHEM_CACTVS_HBOND_ACCEPTOR>  (1) 
4

>  <PUBCHEM_CACTVS_HBOND_DONOR>  (1) 
2

>  <PUBCHEM_CACTVS_ROTATABLE_BOND>  (1) 
3

>  <PUBCHEM_CACTVS_SUBSKEYS>  (1) 
AAADccBjMAAAAAAAAAAAAAAAAAAAAQAAAAAAAAAAAAAAAAAAAAAAHgAQCAAACCjBgAQBCALAAgAoAAGRPAAAAAEAAAABAIGIAAAAQBIAiAAUQAAEEgAAAAC8FwIAAAAAAAAAAAAAAAAAAAAAAAAAAAAAAA==

>  <PUBCHEM_IUPAC_OPENEYE_NAME>  (1) 
3-(5-oxo-1,4-dihydroimidazol-4-yl)propanoic acid

>  <PUBCHEM_IUPAC_CAS_NAME>  (1) 
3-(5-oxo-1,4-dihydroimidazol-4-yl)propanoic acid

>  <PUBCHEM_IUPAC_NAME_MARKUP>  (1) 
3-(5-oxo-1,4-dihydroimidazol-4-yl)propanoic acid

>  <PUBCHEM_IUPAC_NAME>  (1) 
3-(5-oxo-1,4-dihydroimidazol-4-yl)propanoic acid

>  <PUBCHEM_IUPAC_SYSTEMATIC_NAME>  (1) 
3-(5-oxidanylidene-1,4-dihydroimidazol-4-yl)propanoic acid

>  <PUBCHEM_IUPAC_TRADITIONAL_NAME>  (1) 
3-(5-keto-2-imidazolin-4-yl)propionic acid

>  <PUBCHEM_IUPAC_INCHI>  (1) 
InChI=1S/C6H8N2O3/c9-5(10)2-1-4-6(11)8-3-7-4/h3-4H,1-2H2,(H,9,10)(H,7,8,11)

>  <PUBCHEM_IUPAC_INCHIKEY>  (1) 
HEXMLHKQVUFYME-UHFFFAOYSA-N

>  <PUBCHEM_XLOGP3_AA>  (1) 
-0.9

>  <PUBCHEM_EXACT_MASS>  (1) 
156.053492

>  <PUBCHEM_MOLECULAR_FORMULA>  (1) 
C6H8N2O3

>  <PUBCHEM_MOLECULAR_WEIGHT>  (1) 
156.14

>  <PUBCHEM_OPENEYE_CAN_SMILES>  (1) 
C1=NC(C(=O)N1)CCC(=O)O

>  <PUBCHEM_OPENEYE_ISO_SMILES>  (1) 
C1=NC(C(=O)N1)CCC(=O)O

>  <PUBCHEM_CACTVS_TPSA>  (1) 
78.8

>  <PUBCHEM_MONOISOTOPIC_WEIGHT>  (1) 
156.053492

>  <PUBCHEM_TOTAL_CHARGE>  (1) 
0

>  <PUBCHEM_HEAVY_ATOM_COUNT>  (1) 
11

>  <PUBCHEM_ATOM_DEF_STEREO_COUNT>  (1) 
0

>  <PUBCHEM_ATOM_UDEF_STEREO_COUNT>  (1) 
1

>  <PUBCHEM_BOND_DEF_STEREO_COUNT>  (1) 
0

>  <PUBCHEM_BOND_UDEF_STEREO_COUNT>  (1) 
0

>  <PUBCHEM_ISOTOPIC_ATOM_COUNT>  (1) 
0

>  <PUBCHEM_COMPONENT_COUNT>  (1) 
1

>  <PUBCHEM_CACTVS_TAUTO_COUNT>  (1) 
-1

>  <PUBCHEM_COORDINATE_TYPE>  (1) 
1
5
255

>  <PUBCHEM_BONDANNOTATIONS>  (1) 
6  7  3

$$$$
