129
     RDKit          2D

  7  6  0  0  0  0  0  0  0  0999 V2000
    3.5140   -0.3095    0.0000 O   0  0  0  0  0  0  0  0  0  0  0  0
   -1.6736   -0.0110    0.0000 C   0  0  0  0  0  0  0  0  0  0  0  0
   -0.3336    0.6631    0.0000 C   0  0  0  0  0  0  0  0  0  0  0  0
    0.9202   -0.1603    0.0000 C   0  0  0  0  0  0  0  0  0  0  0  0
   -2.9274    0.8124    0.0000 C   0  0  0  0  0  0  0  0  0  0  0  0
   -1.7598   -1.5085    0.0000 C   0  0  0  0  0  0  0  0  0  0  0  0
    2.2602    0.5139    0.0000 C   0  0  0  0  0  0  0  0  0  0  0  0
  1  7  2  0
  2  3  1  0
  2  5  1  0
  2  6  1  0
  3  4  1  0
  4  7  1  0
M  END
>  <PUBCHEM_COMPOUND_CID>  (1) 
129

>  <PUBCHEM_COMPOUND_CANONICALIZED>  (1) 
1

>  <PUBCHEM_CACTVS_COMPLEXITY>  (1) 
48.1

>  <PUBCHEM_CACTVS_HBOND_ACCEPTOR>  (1) 
1

>  <PUBCHEM_CACTVS_HBOND_DONOR>  (1) 
0

>  <PUBCHEM_CACTVS_ROTATABLE_BOND>  (1) 
3

>  <PUBCHEM_CACTVS_SUBSKEYS>  (1) 
AAADccBgIAAAAAAAAAAAAAAAAAAAAAAAAAAAAAAAAAAAAAAAAAAAGgAAAAAADQCggAICAAAAAAAIAAgQgAAAAAAAAAAAAAEAAAAAABIAAAAAAAAAAAAAAAAIAAAMAAAAAAAAAAAAAAAAAAAAAAAAAAAAAA==

>  <PUBCHEM_IUPAC_OPENEYE_NAME>  (1) 
4-methylpentanal

>  <PUBCHEM_IUPAC_CAS_NAME>  (1) 
4-methylpentanal

>  <PUBCHEM_IUPAC_NAME_MARKUP>  (1) 
4-methylpentanal

>  <PUBCHEM_IUPAC_NAME>  (1) 
4-methylpentanal

>  <PUBCHEM_IUPAC_SYSTEMATIC_NAME>  (1) 
4-methylpentanal

>  <PUBCHEM_IUPAC_TRADITIONAL_NAME>  (1) 
4-methylvaleraldehyde

>  <PUBCHEM_IUPAC_INCHI>  (1) 
InChI=1S/C6H12O/c1-6(2)4-3-5-7/h5-6H,3-4H2,1-2H3

>  <PUBCHEM_IUPAC_INCHIKEY>  (1) 
JGEGJYXHCFUMJF-UHFFFAOYSA-N

>  <PUBCHEM_XLOGP3_AA>  (1) 
1.3

>  <PUBCHEM_EXACT_MASS>  (1) 
100.088815

>  <PUBCHEM_MOLECULAR_FORMULA>  (1) 
C6H12O

>  <PUBCHEM_MOLECULAR_WEIGHT>  (1) 
100.16

>  <PUBCHEM_OPENEYE_CAN_SMILES>  (1) 
CC(C)CCC=O

>  <PUBCHEM_OPENEYE_ISO_SMILES>  (1) 
CC(C)CCC=O

>  <PUBCHEM_CACTVS_TPSA>  (1) 
17.1

>  <PUBCHEM_MONOISOTOPIC_WEIGHT>  (1) 
100.088815

>  <PUBCHEM_TOTAL_CHARGE>  (1) 
0

>  <PUBCHEM_HEAVY_ATOM_COUNT>  (1) 
7

>  <PUBCHEM_ATOM_DEF_STEREO_COUNT>  (1) 
0

>  <PUBCHEM_ATOM_UDEF_STEREO_COUNT>  (1) 
0

>  <PUBCHEM_BOND_DEF_STEREO_COUNT>  (1) 
0

>  <PUBCHEM_BOND_UDEF_STEREO_COUNT>  (1) 
0

>  <PUBCHEM_ISOTOPIC_ATOM_COUNT>  (1) 
0

>  <PUBCHEM_COMPONENT_COUNT>  (1) 
1

>  <PUBCHEM_CACTVS_TAUTO_COUNT>  (1) 
-1

>  <PUBCHEM_COORDINATE_TYPE>  (1) 
1
5
255

$$$$
