135
     RDKit          2D

 10 10  0  0  0  0  0  0  0  0999 V2000
   -3.7500    0.0000    0.0000 O   0  0  0  0  0  0  0  0  0  0  0  0
    3.0000   -1.2990    0.0000 O   0  0  0  0  0  0  0  0  0  0  0  0
    3.0000    1.2990    0.0000 O   0  0  0  0  0  0  0  0  0  0  0  0
    0.7500   -0.0000    0.0000 C   0  0  0  0  0  0  0  0  0  0  0  0
   -0.0000   -1.2990    0.0000 C   0  0  0  0  0  0  0  0  0  0  0  0
    0.0000    1.2990    0.0000 C   0  0  0  0  0  0  0  0  0  0  0  0
   -2.2500    0.0000    0.0000 C   0  0  0  0  0  0  0  0  0  0  0  0
   -1.5000   -1.2990    0.0000 C   0  0  0  0  0  0  0  0  0  0  0  0
   -1.5000    1.2990    0.0000 C   0  0  0  0  0  0  0  0  0  0  0  0
    2.2500    0.0000    0.0000 C   0  0  0  0  0  0  0  0  0  0  0  0
  1  7  1  0
  2 10  1  0
  3 10  2  0
  4  5  2  0
  4  6  1  0
  4 10  1  0
  5  8  1  0
  6  9  2  0
  7  8  2  0
  7  9  1  0
M  END
>  <PUBCHEM_COMPOUND_CID>  (1) 
135

>  <PUBCHEM_COMPOUND_CANONICALIZED>  (1) 
1

>  <PUBCHEM_CACTVS_COMPLEXITY>  (1) 
125

>  <PUBCHEM_CACTVS_HBOND_ACCEPTOR>  (1) 
3

>  <PUBCHEM_CACTVS_HBOND_DONOR>  (1) 
2

>  <PUBCHEM_CACTVS_ROTATABLE_BOND>  (1) 
1

>  <PUBCHEM_CACTVS_SUBSKEYS>  (1) 
AAADcYBgMAAAAAAAAAAAAAAAAAAAAAAAAAAwAAAAAAAAAAABAAAAGgAACAAADASAmAAwDoAAAgCIAiDSCAACAAAkIAAIiAEGCMgIJjKCFRKAcQAkwBEImYeI7CTOIAAAAAAAAABAAAAAAAAAAAAAAAAAAA==

>  <PUBCHEM_IUPAC_OPENEYE_NAME>  (1) 
4-hydroxybenzoic acid

>  <PUBCHEM_IUPAC_CAS_NAME>  (1) 
4-hydroxybenzoic acid

>  <PUBCHEM_IUPAC_NAME_MARKUP>  (1) 
4-hydroxybenzoic acid

>  <PUBCHEM_IUPAC_NAME>  (1) 
4-hydroxybenzoic acid

>  <PUBCHEM_IUPAC_SYSTEMATIC_NAME>  (1) 
4-oxidanylbenzoic acid

>  <PUBCHEM_IUPAC_TRADITIONAL_NAME>  (1) 
4-hydroxybenzoic acid

>  <PUBCHEM_IUPAC_INCHI>  (1) 
InChI=1S/C7H6O3/c8-6-3-1-5(2-4-6)7(9)10/h1-4,8H,(H,9,10)

>  <PUBCHEM_IUPAC_INCHIKEY>  (1) 
FJKROLUGYXJWQN-UHFFFAOYSA-N

>  <PUBCHEM_XLOGP3>  (1) 
1.6

>  <PUBCHEM_EXACT_MASS>  (1) 
138.031694

>  <PUBCHEM_MOLECULAR_FORMULA>  (1) 
C7H6O3

>  <PUBCHEM_MOLECULAR_WEIGHT>  (1) 
138.12

>  <PUBCHEM_OPENEYE_CAN_SMILES>  (1) 
C1=CC(=CC=C1C(=O)O)O

>  <PUBCHEM_OPENEYE_ISO_SMILES>  (1) 
C1=CC(=CC=C1C(=O)O)O

>  <PUBCHEM_CACTVS_TPSA>  (1) 
57.5

>  <PUBCHEM_MONOISOTOPIC_WEIGHT>  (1) 
138.031694

>  <PUBCHEM_TOTAL_CHARGE>  (1) 
0

>  <PUBCHEM_HEAVY_ATOM_COUNT>  (1) 
10

>  <PUBCHEM_ATOM_DEF_STEREO_COUNT>  (1) 
0

>  <PUBCHEM_ATOM_UDEF_STEREO_COUNT>  (1) 
0

>  <PUBCHEM_BOND_DEF_STEREO_COUNT>  (1) 
0

>  <PUBCHEM_BOND_UDEF_STEREO_COUNT>  (1) 
0

>  <PUBCHEM_ISOTOPIC_ATOM_COUNT>  (1) 
0

>  <PUBCHEM_COMPONENT_COUNT>  (1) 
1

>  <PUBCHEM_CACTVS_TAUTO_COUNT>  (1) 
-1

>  <PUBCHEM_COORDINATE_TYPE>  (1) 
1
5
255

>  <PUBCHEM_BONDANNOTATIONS>  (1) 
4  5  8
4  6  8
5  8  8
6  9  8
7  8  8
7  9  8

$$$$
