137
     RDKit          2D

  9  8  0  0  0  0  0  0  0  0999 V2000
    1.7016   -1.5966    0.0000 O   0  0  0  0  0  0  0  0  0  0  0  0
   -3.6606   -0.8914    0.0000 O   0  0  0  0  0  0  0  0  0  0  0  0
   -2.7130    1.5277    0.0000 O   0  0  0  0  0  0  0  0  0  0  0  0
    4.0458    0.2755    0.0000 N   0  0  0  0  0  0  0  0  0  0  0  0
    0.0803    0.4336    0.0000 C   0  0  0  0  0  0  0  0  0  0  0  0
   -1.0918   -0.5025    0.0000 C   0  0  0  0  0  0  0  0  0  0  0  0
    1.4770   -0.1135    0.0000 C   0  0  0  0  0  0  0  0  0  0  0  0
    2.6491    0.8225    0.0000 C   0  0  0  0  0  0  0  0  0  0  0  0
   -2.4885    0.0446    0.0000 C   0  0  0  0  0  0  0  0  0  0  0  0
  1  7  2  0
  2  9  1  0
  3  9  2  0
  4  8  1  0
  5  6  1  0
  5  7  1  0
  6  9  1  0
  7  8  1  0
M  END
>  <PUBCHEM_COMPOUND_CID>  (1) 
137

>  <PUBCHEM_COMPOUND_CANONICALIZED>  (1) 
1

>  <PUBCHEM_CACTVS_COMPLEXITY>  (1) 
121

>  <PUBCHEM_CACTVS_HBOND_ACCEPTOR>  (1) 
4

>  <PUBCHEM_CACTVS_HBOND_DONOR>  (1) 
2

>  <PUBCHEM_CACTVS_ROTATABLE_BOND>  (1) 
4

>  <PUBCHEM_CACTVS_SUBSKEYS>  (1) 
AAADccBiMAAAAAAAAAAAAAAAAAAAAAAAAAAAAAAAAAAAAAAAAAAAHgAQCAAACATBgAQACABAAgAIAICQCAAAAAAAAAAAAIGAAAAAABIAgAAAQAAEAAAAAACbEQAAAAAAAAAAAAAAAAAAAAAAAAAAAAAAAA==

>  <PUBCHEM_IUPAC_OPENEYE_NAME>  (1) 
5-amino-4-oxo-pentanoic acid

>  <PUBCHEM_IUPAC_CAS_NAME>  (1) 
5-amino-4-oxopentanoic acid

>  <PUBCHEM_IUPAC_NAME_MARKUP>  (1) 
5-amino-4-oxopentanoic acid

>  <PUBCHEM_IUPAC_NAME>  (1) 
5-amino-4-oxopentanoic acid

>  <PUBCHEM_IUPAC_SYSTEMATIC_NAME>  (1) 
5-azanyl-4-oxidanylidene-pentanoic acid

>  <PUBCHEM_IUPAC_TRADITIONAL_NAME>  (1) 
5-amino-4-keto-valeric acid

>  <PUBCHEM_IUPAC_INCHI>  (1) 
InChI=1S/C5H9NO3/c6-3-4(7)1-2-5(8)9/h1-3,6H2,(H,8,9)

>  <PUBCHEM_IUPAC_INCHIKEY>  (1) 
ZGXJTSGNIOSYLO-UHFFFAOYSA-N

>  <PUBCHEM_XLOGP3_AA>  (1) 
-3.8

>  <PUBCHEM_EXACT_MASS>  (1) 
131.058243

>  <PUBCHEM_MOLECULAR_FORMULA>  (1) 
C5H9NO3

>  <PUBCHEM_MOLECULAR_WEIGHT>  (1) 
131.13

>  <PUBCHEM_OPENEYE_CAN_SMILES>  (1) 
C(CC(=O)O)C(=O)CN

>  <PUBCHEM_OPENEYE_ISO_SMILES>  (1) 
C(CC(=O)O)C(=O)CN

>  <PUBCHEM_CACTVS_TPSA>  (1) 
80.4

>  <PUBCHEM_MONOISOTOPIC_WEIGHT>  (1) 
131.058243

>  <PUBCHEM_TOTAL_CHARGE>  (1) 
0

>  <PUBCHEM_HEAVY_ATOM_COUNT>  (1) 
9

>  <PUBCHEM_ATOM_DEF_STEREO_COUNT>  (1) 
0

>  <PUBCHEM_ATOM_UDEF_STEREO_COUNT>  (1) 
0

>  <PUBCHEM_BOND_DEF_STEREO_COUNT>  (1) 
0

>  <PUBCHEM_BOND_UDEF_STEREO_COUNT>  (1) 
0

>  <PUBCHEM_ISOTOPIC_ATOM_COUNT>  (1) 
0

>  <PUBCHEM_COMPONENT_COUNT>  (1) 
1

>  <PUBCHEM_CACTVS_TAUTO_COUNT>  (1) 
-1

>  <PUBCHEM_COORDINATE_TYPE>  (1) 
1
5
255

$$$$
