139
     RDKit          2D

 30 33  0  0  1  0  0  0  0  0999 V2000
   -1.8524   -1.2532    0.0000 O   0  0  0  0  0  0  0  0  0  0  0  0
    2.9489    3.6660    0.0000 O   0  0  0  0  0  0  0  0  0  0  0  0
    7.3973   -2.7342    0.0000 O   0  0  0  0  0  0  0  0  0  0  0  0
   -0.7463    1.0977    0.0000 C   0  0  0  0  0  0  0  0  0  0  0  0
    0.4855    1.9538    0.0000 C   0  0  0  0  0  0  0  0  0  0  0  0
    1.8427    1.3151    0.0000 C   0  0  0  0  0  0  0  0  0  0  0  0
    1.9683   -0.1796    0.0000 C   0  0  0  0  0  0  0  0  0  0  0  0
    3.3255   -0.8182    0.0000 C   0  0  0  0  0  0  0  0  0  0  0  0
   -1.9411    2.0045    0.0000 C   0  0  0  0  0  0  0  0  0  0  0  0
   -0.6207   -0.3971    0.0000 C   0  0  0  0  0  0  0  0  0  0  0  0
    0.7365   -1.0357    0.0000 C   0  0  0  0  0  0  0  0  0  0  0  0
    4.5572    0.0378    0.0000 C   0  0  0  0  0  0  0  0  0  0  0  0
    0.0519    3.3897    0.0000 C   0  0  0  0  0  0  0  0  0  0  0  0
    3.0744    2.1712    0.0000 C   0  0  0  0  0  0  0  0  0  0  0  0
   -1.4478    3.4211    0.0000 C   0  0  0  0  0  0  0  0  0  0  0  0
    4.4317    1.5326    0.0000 C   0  0  0  0  0  0  0  0  0  0  0  0
    3.4511   -2.3130    0.0000 C   0  0  0  0  0  0  0  0  0  0  0  0
   -2.0607    0.3750    0.0000 C   0  0  0  0  0  0  0  0  0  0  0  0
   -3.3770    1.5710    0.0000 C   0  0  0  0  0  0  0  0  0  0  0  0
    5.9145   -0.6008    0.0000 C   0  0  0  0  0  0  0  0  0  0  0  0
    2.0938   -1.6743    0.0000 C   0  0  0  0  0  0  0  0  0  0  0  0
    4.8083   -2.9516    0.0000 C   0  0  0  0  0  0  0  0  0  0  0  0
    6.0400   -2.0955    0.0000 C   0  0  0  0  0  0  0  0  0  0  0  0
   -3.7195    0.1106    0.0000 C   0  0  0  0  0  0  0  0  0  0  0  0
   -4.4705    2.5978    0.0000 C   0  0  0  0  0  0  0  0  0  0  0  0
   -5.1555   -0.3230    0.0000 C   0  0  0  0  0  0  0  0  0  0  0  0
   -5.4980   -1.7834    0.0000 C   0  0  0  0  0  0  0  0  0  0  0  0
   -6.9340   -2.2169    0.0000 C   0  0  0  0  0  0  0  0  0  0  0  0
   -7.2765   -3.6773    0.0000 C   0  0  0  0  0  0  0  0  0  0  0  0
   -8.0274   -1.1901    0.0000 C   0  0  0  0  0  0  0  0  0  0  0  0
  1 10  1  0
  2 14  1  0
  3 23  1  0
  4  5  1  0
  4  9  1  0
  4 10  1  0
  4 18  1  0
  5  6  1  0
  5 13  1  0
  6  7  1  0
  6 14  1  0
  7  8  1  0
  7 11  1  0
  8 12  1  0
  8 17  1  0
  8 21  1  0
  9 15  1  0
  9 19  1  0
 10 11  1  0
 12 16  1  0
 12 20  1  0
 13 15  1  0
 14 16  1  0
 17 22  1  0
 19 24  1  0
 19 25  1  0
 20 23  1  0
 22 23  1  0
 24 26  1  0
 26 27  1  0
 27 28  1  0
 28 29  1  0
 28 30  1  0
M  END
>  <PUBCHEM_COMPOUND_CID>  (1) 
139

>  <PUBCHEM_COMPOUND_CANONICALIZED>  (1) 
1

>  <PUBCHEM_CACTVS_COMPLEXITY>  (1) 
605

>  <PUBCHEM_CACTVS_HBOND_ACCEPTOR>  (1) 
3

>  <PUBCHEM_CACTVS_HBOND_DONOR>  (1) 
3

>  <PUBCHEM_CACTVS_ROTATABLE_BOND>  (1) 
5

>  <PUBCHEM_CACTVS_SUBSKEYS>  (1) 
AAADcfB4MAAAAAAAAAAAAAAAAAAAAYAAAAAwYMAAAAAAAGDAAAAAGgAACAAADxSggAICAAAAAgAAAAAAAAAAAAAAAAAAAAAAAAAAEAIAAAAAQAAEAAAAAAGA4PQPgAAAAAAAAADAAAYAADAAAQAACAAAAA==

>  <PUBCHEM_IUPAC_OPENEYE_NAME>  (1) 
17-(1,5-dimethylhexyl)-10,13-dimethyl-2,3,4,5,6,7,8,9,11,12,14,15,16,17-tetradecahydro-1H-cyclopenta[a]phenanthrene-3,7,12-triol

>  <PUBCHEM_IUPAC_CAS_NAME>  (1) 
10,13-dimethyl-17-(6-methylheptan-2-yl)-2,3,4,5,6,7,8,9,11,12,14,15,16,17-tetradecahydro-1H-cyclopenta[a]phenanthrene-3,7,12-triol

>  <PUBCHEM_IUPAC_NAME_MARKUP>  (1) 
10,13-dimethyl-17-(6-methylheptan-2-yl)-2,3,4,5,6,7,8,9,11,12,14,15,16,17-tetradecahydro-1<I>H</I>-cyclopenta[a]phenanthrene-3,7,12-triol

>  <PUBCHEM_IUPAC_NAME>  (1) 
10,13-dimethyl-17-(6-methylheptan-2-yl)-2,3,4,5,6,7,8,9,11,12,14,15,16,17-tetradecahydro-1H-cyclopenta[a]phenanthrene-3,7,12-triol

>  <PUBCHEM_IUPAC_SYSTEMATIC_NAME>  (1) 
10,13-dimethyl-17-(6-methylheptan-2-yl)-2,3,4,5,6,7,8,9,11,12,14,15,16,17-tetradecahydro-1H-cyclopenta[a]phenanthrene-3,7,12-triol

>  <PUBCHEM_IUPAC_TRADITIONAL_NAME>  (1) 
17-(1,5-dimethylhexyl)-10,13-dimethyl-2,3,4,5,6,7,8,9,11,12,14,15,16,17-tetradecahydro-1H-cyclopenta[a]phenanthrene-3,7,12-triol

>  <PUBCHEM_IUPAC_INCHI>  (1) 
InChI=1S/C27H48O3/c1-16(2)7-6-8-17(3)20-9-10-21-25-22(15-24(30)27(20,21)5)26(4)12-11-19(28)13-18(26)14-23(25)29/h16-25,28-30H,6-15H2,1-5H3

>  <PUBCHEM_IUPAC_INCHIKEY>  (1) 
RIVQQZVHIVNQFH-UHFFFAOYSA-N

>  <PUBCHEM_XLOGP3_AA>  (1) 
6.7

>  <PUBCHEM_EXACT_MASS>  (1) 
420.360345

>  <PUBCHEM_MOLECULAR_FORMULA>  (1) 
C27H48O3

>  <PUBCHEM_MOLECULAR_WEIGHT>  (1) 
420.7

>  <PUBCHEM_OPENEYE_CAN_SMILES>  (1) 
CC(C)CCCC(C)C1CCC2C1(C(CC3C2C(CC4C3(CCC(C4)O)C)O)O)C

>  <PUBCHEM_OPENEYE_ISO_SMILES>  (1) 
CC(C)CCCC(C)C1CCC2C1(C(CC3C2C(CC4C3(CCC(C4)O)C)O)O)C

>  <PUBCHEM_CACTVS_TPSA>  (1) 
60.7

>  <PUBCHEM_MONOISOTOPIC_WEIGHT>  (1) 
420.360345

>  <PUBCHEM_TOTAL_CHARGE>  (1) 
0

>  <PUBCHEM_HEAVY_ATOM_COUNT>  (1) 
30

>  <PUBCHEM_ATOM_DEF_STEREO_COUNT>  (1) 
0

>  <PUBCHEM_ATOM_UDEF_STEREO_COUNT>  (1) 
11

>  <PUBCHEM_BOND_DEF_STEREO_COUNT>  (1) 
0

>  <PUBCHEM_BOND_UDEF_STEREO_COUNT>  (1) 
0

>  <PUBCHEM_ISOTOPIC_ATOM_COUNT>  (1) 
0

>  <PUBCHEM_COMPONENT_COUNT>  (1) 
1

>  <PUBCHEM_CACTVS_TAUTO_COUNT>  (1) 
-1

>  <PUBCHEM_COORDINATE_TYPE>  (1) 
1
5
255

>  <PUBCHEM_BONDANNOTATIONS>  (1) 
10  1  3
12  20  3
19  25  3
14  2  3
23  3  3
4  18  3
5  13  3
6  14  3
7  11  3
8  21  3
9  15  3

$$$$
