142
     RDKit          2D

 18 20  0  0  1  0  0  0  0  0999 V2000
   -1.7507   -1.2667    0.0000 O   0  0  0  0  0  0  0  0  0  0  0  0
   -2.5103    2.5397    0.0000 O   0  0  0  0  0  0  0  0  0  0  0  0
   -5.1456    0.6149    0.0000 O   0  0  0  0  0  0  0  0  0  0  0  0
    0.1346    0.6281    0.0000 N   0  0  0  0  0  0  0  0  0  0  0  0
    2.0946    2.0597    0.0000 N   0  0  0  0  0  0  0  0  0  0  0  0
    1.5109   -1.7419    0.0000 N   0  0  0  0  0  0  0  0  0  0  0  0
    4.0941   -1.4638    0.0000 N   0  0  0  0  0  0  0  0  0  0  0  0
    5.1448    0.9123    0.0000 N   0  0  0  0  0  0  0  0  0  0  0  0
   -2.5065    1.0397    0.0000 C   0  0  0  0  0  0  0  0  0  0  0  0
   -1.2908    0.1610    0.0000 C   0  0  0  0  0  0  0  0  0  0  0  0
   -3.7178    0.1549    0.0000 C   0  0  0  0  0  0  0  0  0  0  0  0
   -3.2507   -1.2705    0.0000 C   0  0  0  0  0  0  0  0  0  0  0  0
   -4.1293   -2.4862    0.0000 C   0  0  0  0  0  0  0  0  0  0  0  0
    1.3504   -0.2505    0.0000 C   0  0  0  0  0  0  0  0  0  0  0  0
    0.5946    2.0559    0.0000 C   0  0  0  0  0  0  0  0  0  0  0  0
    2.5617    0.6343    0.0000 C   0  0  0  0  0  0  0  0  0  0  0  0
    3.9335    0.0276    0.0000 C   0  0  0  0  0  0  0  0  0  0  0  0
    2.8828   -2.3485    0.0000 C   0  0  0  0  0  0  0  0  0  0  0  0
  1 10  1  0
  1 12  1  0
  2  9  1  0
  3 11  1  0
  4 10  1  0
  4 14  1  0
  4 15  1  0
  5 15  2  0
  5 16  1  0
  6 14  1  0
  6 18  2  0
  7 17  2  0
  7 18  1  0
  8 17  1  0
  9 10  1  0
  9 11  1  0
 11 12  1  0
 12 13  1  0
 14 16  2  0
 16 17  1  0
M  END
>  <PUBCHEM_COMPOUND_CID>  (1) 
142

>  <PUBCHEM_COMPOUND_CANONICALIZED>  (1) 
1

>  <PUBCHEM_CACTVS_COMPLEXITY>  (1) 
320

>  <PUBCHEM_CACTVS_HBOND_ACCEPTOR>  (1) 
7

>  <PUBCHEM_CACTVS_HBOND_DONOR>  (1) 
3

>  <PUBCHEM_CACTVS_ROTATABLE_BOND>  (1) 
1

>  <PUBCHEM_CACTVS_SUBSKEYS>  (1) 
AAADccBzsAAAAAAAAAAAAAAAAAAAAWJAAAAsAAAAAAAAAFgB+AAAHgAQCAAACBzhlwYH8L9MFgCgAQZhZACAgC0REKABUCAoVBCDWAJAyEAeRAgPAALTACCwAAAAAAAAAAAAAAAAAAAAAAAAAAAAAAAAAA==

>  <PUBCHEM_IUPAC_OPENEYE_NAME>  (1) 
2-(6-aminopurin-9-yl)-5-methyl-tetrahydrofuran-3,4-diol

>  <PUBCHEM_IUPAC_CAS_NAME>  (1) 
2-(6-aminopurin-9-yl)-5-methyloxolane-3,4-diol

>  <PUBCHEM_IUPAC_NAME_MARKUP>  (1) 
2-(6-aminopurin-9-yl)-5-methyloxolane-3,4-diol

>  <PUBCHEM_IUPAC_NAME>  (1) 
2-(6-aminopurin-9-yl)-5-methyloxolane-3,4-diol

>  <PUBCHEM_IUPAC_SYSTEMATIC_NAME>  (1) 
2-(6-aminopurin-9-yl)-5-methyl-oxolane-3,4-diol

>  <PUBCHEM_IUPAC_TRADITIONAL_NAME>  (1) 
2-adenin-9-yl-5-methyl-tetrahydrofuran-3,4-diol

>  <PUBCHEM_IUPAC_INCHI>  (1) 
InChI=1S/C10H13N5O3/c1-4-6(16)7(17)10(18-4)15-3-14-5-8(11)12-2-13-9(5)15/h2-4,6-7,10,16-17H,1H3,(H2,11,12,13)

>  <PUBCHEM_IUPAC_INCHIKEY>  (1) 
XGYIMTFOTBMPFP-UHFFFAOYSA-N

>  <PUBCHEM_XLOGP3>  (1) 
-0.6

>  <PUBCHEM_EXACT_MASS>  (1) 
251.101839

>  <PUBCHEM_MOLECULAR_FORMULA>  (1) 
C10H13N5O3

>  <PUBCHEM_MOLECULAR_WEIGHT>  (1) 
251.24

>  <PUBCHEM_OPENEYE_CAN_SMILES>  (1) 
CC1C(C(C(O1)N2C=NC3=C(N=CN=C32)N)O)O

>  <PUBCHEM_OPENEYE_ISO_SMILES>  (1) 
CC1C(C(C(O1)N2C=NC3=C(N=CN=C32)N)O)O

>  <PUBCHEM_CACTVS_TPSA>  (1) 
119

>  <PUBCHEM_MONOISOTOPIC_WEIGHT>  (1) 
251.101839

>  <PUBCHEM_TOTAL_CHARGE>  (1) 
0

>  <PUBCHEM_HEAVY_ATOM_COUNT>  (1) 
18

>  <PUBCHEM_ATOM_DEF_STEREO_COUNT>  (1) 
0

>  <PUBCHEM_ATOM_UDEF_STEREO_COUNT>  (1) 
4

>  <PUBCHEM_BOND_DEF_STEREO_COUNT>  (1) 
0

>  <PUBCHEM_BOND_UDEF_STEREO_COUNT>  (1) 
0

>  <PUBCHEM_ISOTOPIC_ATOM_COUNT>  (1) 
0

>  <PUBCHEM_COMPONENT_COUNT>  (1) 
1

>  <PUBCHEM_CACTVS_TAUTO_COUNT>  (1) 
-1

>  <PUBCHEM_COORDINATE_TYPE>  (1) 
1
5
255

>  <PUBCHEM_BONDANNOTATIONS>  (1) 
12  13  3
14  16  8
16  17  8
9  2  3
11  3  3
10  4  3
4  14  8
4  15  8
5  15  8
5  16  8
6  14  8
6  18  8
7  17  8
7  18  8

$$$$
