144
     RDKit          2D

 16 17  0  0  1  0  0  0  0  0999 V2000
    4.0110   -2.6999    0.0000 O   0  0  0  0  0  0  0  0  0  0  0  0
   -5.4064   -0.2794    0.0000 O   0  0  0  0  0  0  0  0  0  0  0  0
   -3.7915   -2.3146    0.0000 O   0  0  0  0  0  0  0  0  0  0  0  0
    1.0756    2.5048    0.0000 N   0  0  0  0  0  0  0  0  0  0  0  0
   -3.0564    1.5854    0.0000 N   0  0  0  0  0  0  0  0  0  0  0  0
   -0.2664    0.4825    0.0000 C   0  0  0  0  0  0  0  0  0  0  0  0
   -1.4415   -0.4499    0.0000 C   0  0  0  0  0  0  0  0  0  0  0  0
    1.1785    0.0799    0.0000 C   0  0  0  0  0  0  0  0  0  0  0  0
   -2.8364    0.1016    0.0000 C   0  0  0  0  0  0  0  0  0  0  0  0
    2.0079    1.3297    0.0000 C   0  0  0  0  0  0  0  0  0  0  0  0
   -0.3301    1.9811    0.0000 C   0  0  0  0  0  0  0  0  0  0  0  0
    1.8462   -1.2633    0.0000 C   0  0  0  0  0  0  0  0  0  0  0  0
    3.5050    1.2364    0.0000 C   0  0  0  0  0  0  0  0  0  0  0  0
    3.3433   -1.3567    0.0000 C   0  0  0  0  0  0  0  0  0  0  0  0
    4.1727   -0.1068    0.0000 C   0  0  0  0  0  0  0  0  0  0  0  0
   -4.0115   -0.8308    0.0000 C   0  0  0  0  0  0  0  0  0  0  0  0
  1 14  1  0
  2 16  1  0
  3 16  2  0
  4 10  1  0
  4 11  1  0
  5  9  1  0
  6  7  1  0
  6  8  1  0
  6 11  2  0
  7  9  1  0
  8 10  2  0
  8 12  1  0
  9 16  1  0
 10 13  1  0
 12 14  2  0
 13 15  2  0
 14 15  1  0
M  END
>  <PUBCHEM_COMPOUND_CID>  (1) 
144

>  <PUBCHEM_COMPOUND_CANONICALIZED>  (1) 
1

>  <PUBCHEM_CACTVS_COMPLEXITY>  (1) 
272

>  <PUBCHEM_CACTVS_HBOND_ACCEPTOR>  (1) 
4

>  <PUBCHEM_CACTVS_HBOND_DONOR>  (1) 
4

>  <PUBCHEM_CACTVS_ROTATABLE_BOND>  (1) 
3

>  <PUBCHEM_CACTVS_SUBSKEYS>  (1) 
AAADccBzMAAAAAAAAAAAAAAAAAAAAWAAAAAwAAAAAAAAAFgB8AAAHgAQCAAADCzBngQ8zvLJkgCoAzT3TACCgCAxIiAI2aG+bJgKJvLCkZOEcAhk0BHI2Ae42fKOgEABAAACAAAAgAIAAAQAAAAAAAAAAA==

>  <PUBCHEM_IUPAC_OPENEYE_NAME>  (1) 
2-amino-3-(5-hydroxy-1H-indol-3-yl)propanoic acid

>  <PUBCHEM_IUPAC_CAS_NAME>  (1) 
2-amino-3-(5-hydroxy-1H-indol-3-yl)propanoic acid

>  <PUBCHEM_IUPAC_NAME_MARKUP>  (1) 
2-amino-3-(5-hydroxy-1<I>H</I>-indol-3-yl)propanoic acid

>  <PUBCHEM_IUPAC_NAME>  (1) 
2-amino-3-(5-hydroxy-1H-indol-3-yl)propanoic acid

>  <PUBCHEM_IUPAC_SYSTEMATIC_NAME>  (1) 
2-azanyl-3-(5-oxidanyl-1H-indol-3-yl)propanoic acid

>  <PUBCHEM_IUPAC_TRADITIONAL_NAME>  (1) 
2-amino-3-(5-hydroxy-1H-indol-3-yl)propionic acid

>  <PUBCHEM_IUPAC_INCHI>  (1) 
InChI=1S/C11H12N2O3/c12-9(11(15)16)3-6-5-13-10-2-1-7(14)4-8(6)10/h1-2,4-5,9,13-14H,3,12H2,(H,15,16)

>  <PUBCHEM_IUPAC_INCHIKEY>  (1) 
LDCYZAJDBXYCGN-UHFFFAOYSA-N

>  <PUBCHEM_XLOGP3>  (1) 
-1.2

>  <PUBCHEM_EXACT_MASS>  (1) 
220.084792

>  <PUBCHEM_MOLECULAR_FORMULA>  (1) 
C11H12N2O3

>  <PUBCHEM_MOLECULAR_WEIGHT>  (1) 
220.22

>  <PUBCHEM_OPENEYE_CAN_SMILES>  (1) 
C1=CC2=C(C=C1O)C(=CN2)CC(C(=O)O)N

>  <PUBCHEM_OPENEYE_ISO_SMILES>  (1) 
C1=CC2=C(C=C1O)C(=CN2)CC(C(=O)O)N

>  <PUBCHEM_CACTVS_TPSA>  (1) 
99.3

>  <PUBCHEM_MONOISOTOPIC_WEIGHT>  (1) 
220.084792

>  <PUBCHEM_TOTAL_CHARGE>  (1) 
0

>  <PUBCHEM_HEAVY_ATOM_COUNT>  (1) 
16

>  <PUBCHEM_ATOM_DEF_STEREO_COUNT>  (1) 
0

>  <PUBCHEM_ATOM_UDEF_STEREO_COUNT>  (1) 
1

>  <PUBCHEM_BOND_DEF_STEREO_COUNT>  (1) 
0

>  <PUBCHEM_BOND_UDEF_STEREO_COUNT>  (1) 
0

>  <PUBCHEM_ISOTOPIC_ATOM_COUNT>  (1) 
0

>  <PUBCHEM_COMPONENT_COUNT>  (1) 
1

>  <PUBCHEM_CACTVS_TAUTO_COUNT>  (1) 
-1

>  <PUBCHEM_COORDINATE_TYPE>  (1) 
1
5
255

>  <PUBCHEM_BONDANNOTATIONS>  (1) 
10  13  8
12  14  8
13  15  8
14  15  8
4  10  8
4  11  8
9  5  3
6  11  8
6  8  8
8  10  8
8  12  8

$$$$
