149
     RDKit          2D

 20 22  0  0  1  0  0  0  0  0999 V2000
   -3.8527   -2.5519    0.0000 S   0  0  0  0  0  0  0  0  0  0  0  0
   -1.5135   -0.4679    0.0000 O   0  0  0  0  0  0  0  0  0  0  0  0
   -1.3290    3.4091    0.0000 O   0  0  0  0  0  0  0  0  0  0  0  0
   -4.3519    2.1796    0.0000 O   0  0  0  0  0  0  0  0  0  0  0  0
    0.7745    0.9141    0.0000 N   0  0  0  0  0  0  0  0  0  0  0  0
    3.0227    1.8286    0.0000 N   0  0  0  0  0  0  0  0  0  0  0  0
    1.5361   -1.7186    0.0000 N   0  0  0  0  0  0  0  0  0  0  0  0
    4.1097   -2.0741    0.0000 N   0  0  0  0  0  0  0  0  0  0  0  0
    5.7044   -0.0231    0.0000 N   0  0  0  0  0  0  0  0  0  0  0  0
   -1.6885    1.9528    0.0000 C   0  0  0  0  0  0  0  0  0  0  0  0
   -3.0779    1.3876    0.0000 C   0  0  0  0  0  0  0  0  0  0  0  0
   -0.7216    0.8060    0.0000 C   0  0  0  0  0  0  0  0  0  0  0  0
   -2.9698   -0.1084    0.0000 C   0  0  0  0  0  0  0  0  0  0  0  0
   -4.1166   -1.0753    0.0000 C   0  0  0  0  0  0  0  0  0  0  0  0
    1.7413   -0.2327    0.0000 C   0  0  0  0  0  0  0  0  0  0  0  0
    1.5664    2.1881    0.0000 C   0  0  0  0  0  0  0  0  0  0  0  0
    3.1308    0.3325    0.0000 C   0  0  0  0  0  0  0  0  0  0  0  0
    4.3150   -0.5882    0.0000 C   0  0  0  0  0  0  0  0  0  0  0  0
   -4.9995   -3.5188    0.0000 C   0  0  0  0  0  0  0  0  0  0  0  0
    2.7202   -2.6393    0.0000 C   0  0  0  0  0  0  0  0  0  0  0  0
  1 14  1  0
  1 19  1  0
  2 12  1  0
  2 13  1  0
  3 10  1  0
  4 11  1  0
  5 12  1  0
  5 15  1  0
  5 16  1  0
  6 16  2  0
  6 17  1  0
  7 15  1  0
  7 20  2  0
  8 18  2  0
  8 20  1  0
  9 18  1  0
 10 11  1  0
 10 12  1  0
 11 13  1  0
 13 14  1  0
 15 17  2  0
 17 18  1  0
M  END
>  <PUBCHEM_COMPOUND_CID>  (1) 
149

>  <PUBCHEM_COMPOUND_CANONICALIZED>  (1) 
1

>  <PUBCHEM_CACTVS_COMPLEXITY>  (1) 
352

>  <PUBCHEM_CACTVS_HBOND_ACCEPTOR>  (1) 
8

>  <PUBCHEM_CACTVS_HBOND_DONOR>  (1) 
3

>  <PUBCHEM_CACTVS_ROTATABLE_BOND>  (1) 
3

>  <PUBCHEM_CACTVS_SUBSKEYS>  (1) 
AAADccBzsABAAAAAAAAAAAAAAAAAAWJAAAAsAAAAAAAAAFgB+AAAHgQQCAAACBzl1waH8L9MFgigAQZhZACAgC0RELABUCAoVBCDWAJgyEAeRAgPAALTACCwAAAAAAAAAAAAAAAAAAAAAAAAAAAAAAAAAA==

>  <PUBCHEM_IUPAC_OPENEYE_NAME>  (1) 
2-(6-aminopurin-9-yl)-5-(methylsulfanylmethyl)tetrahydrofuran-3,4-diol

>  <PUBCHEM_IUPAC_CAS_NAME>  (1) 
2-(6-aminopurin-9-yl)-5-[(methylthio)methyl]oxolane-3,4-diol

>  <PUBCHEM_IUPAC_NAME_MARKUP>  (1) 
2-(6-aminopurin-9-yl)-5-(methylsulfanylmethyl)oxolane-3,4-diol

>  <PUBCHEM_IUPAC_NAME>  (1) 
2-(6-aminopurin-9-yl)-5-(methylsulfanylmethyl)oxolane-3,4-diol

>  <PUBCHEM_IUPAC_SYSTEMATIC_NAME>  (1) 
2-(6-aminopurin-9-yl)-5-(methylsulfanylmethyl)oxolane-3,4-diol

>  <PUBCHEM_IUPAC_TRADITIONAL_NAME>  (1) 
2-adenin-9-yl-5-[(methylthio)methyl]tetrahydrofuran-3,4-diol

>  <PUBCHEM_IUPAC_INCHI>  (1) 
InChI=1S/C11H15N5O3S/c1-20-2-5-7(17)8(18)11(19-5)16-4-15-6-9(12)13-3-14-10(6)16/h3-5,7-8,11,17-18H,2H2,1H3,(H2,12,13,14)

>  <PUBCHEM_IUPAC_INCHIKEY>  (1) 
WUUGFSXJNOTRMR-UHFFFAOYSA-N

>  <PUBCHEM_XLOGP3>  (1) 
-0.3

>  <PUBCHEM_EXACT_MASS>  (1) 
297.089561

>  <PUBCHEM_MOLECULAR_FORMULA>  (1) 
C11H15N5O3S

>  <PUBCHEM_MOLECULAR_WEIGHT>  (1) 
297.34

>  <PUBCHEM_OPENEYE_CAN_SMILES>  (1) 
CSCC1C(C(C(O1)N2C=NC3=C(N=CN=C32)N)O)O

>  <PUBCHEM_OPENEYE_ISO_SMILES>  (1) 
CSCC1C(C(C(O1)N2C=NC3=C(N=CN=C32)N)O)O

>  <PUBCHEM_CACTVS_TPSA>  (1) 
145

>  <PUBCHEM_MONOISOTOPIC_WEIGHT>  (1) 
297.089561

>  <PUBCHEM_TOTAL_CHARGE>  (1) 
0

>  <PUBCHEM_HEAVY_ATOM_COUNT>  (1) 
20

>  <PUBCHEM_ATOM_DEF_STEREO_COUNT>  (1) 
0

>  <PUBCHEM_ATOM_UDEF_STEREO_COUNT>  (1) 
4

>  <PUBCHEM_BOND_DEF_STEREO_COUNT>  (1) 
0

>  <PUBCHEM_BOND_UDEF_STEREO_COUNT>  (1) 
0

>  <PUBCHEM_ISOTOPIC_ATOM_COUNT>  (1) 
0

>  <PUBCHEM_COMPONENT_COUNT>  (1) 
1

>  <PUBCHEM_CACTVS_TAUTO_COUNT>  (1) 
-1

>  <PUBCHEM_COORDINATE_TYPE>  (1) 
1
5
255

>  <PUBCHEM_BONDANNOTATIONS>  (1) 
13  14  3
15  17  8
17  18  8
10  3  3
11  4  3
12  5  3
5  15  8
5  16  8
6  16  8
6  17  8
7  15  8
7  20  8
8  18  8
8  20  8

$$$$
