15
     RDKit          2D

 21 24  0  0  1  0  0  0  0  0999 V2000
   -5.3369   -1.1419    0.0000 O   0  0  0  0  0  0  0  0  0  0  0  0
    6.2231   -0.1483    0.0000 O   0  0  0  0  0  0  0  0  0  0  0  0
   -0.5585    0.9743    0.0000 C   0  0  0  0  0  0  0  0  0  0  0  0
    0.2251   -0.3048    0.0000 C   0  0  0  0  0  0  0  0  0  0  0  0
   -2.0580    0.9352    0.0000 C   0  0  0  0  0  0  0  0  0  0  0  0
   -2.7739   -0.3830    0.0000 C   0  0  0  0  0  0  0  0  0  0  0  0
    1.7246   -0.2657    0.0000 C   0  0  0  0  0  0  0  0  0  0  0  0
    2.4405    1.0525    0.0000 C   0  0  0  0  0  0  0  0  0  0  0  0
   -0.4908   -1.6229    0.0000 C   0  0  0  0  0  0  0  0  0  0  0  0
   -1.9903   -1.6620    0.0000 C   0  0  0  0  0  0  0  0  0  0  0  0
    0.1574    2.2924    0.0000 C   0  0  0  0  0  0  0  0  0  0  0  0
   -3.0904    2.0233    0.0000 C   0  0  0  0  0  0  0  0  0  0  0  0
   -4.2487   -0.1095    0.0000 C   0  0  0  0  0  0  0  0  0  0  0  0
    1.6569    2.3315    0.0000 C   0  0  0  0  0  0  0  0  0  0  0  0
   -4.4444    1.3777    0.0000 C   0  0  0  0  0  0  0  0  0  0  0  0
    2.5082   -1.5447    0.0000 C   0  0  0  0  0  0  0  0  0  0  0  0
   -3.6236   -1.6191    0.0000 C   0  0  0  0  0  0  0  0  0  0  0  0
    1.0087   -1.5838    0.0000 C   0  0  0  0  0  0  0  0  0  0  0  0
    3.9400    1.0916    0.0000 C   0  0  0  0  0  0  0  0  0  0  0  0
    4.0077   -1.5056    0.0000 C   0  0  0  0  0  0  0  0  0  0  0  0
    4.7236   -0.1874    0.0000 C   0  0  0  0  0  0  0  0  0  0  0  0
  1 13  1  0
  2 21  2  0
  3  4  1  0
  3  5  1  0
  3 11  1  0
  4  7  1  0
  4  9  1  0
  5  6  1  0
  5 12  1  0
  6 10  1  0
  6 13  1  0
  6 17  1  0
  7  8  1  0
  7 16  1  0
  7 18  1  0
  8 14  1  0
  8 19  1  0
  9 10  1  0
 11 14  1  0
 12 15  1  0
 13 15  1  0
 16 20  1  0
 19 21  1  0
 20 21  1  0
M  END
>  <PUBCHEM_COMPOUND_CID>  (1) 
15

>  <PUBCHEM_COMPOUND_CANONICALIZED>  (1) 
1

>  <PUBCHEM_CACTVS_COMPLEXITY>  (1) 
459

>  <PUBCHEM_CACTVS_HBOND_ACCEPTOR>  (1) 
2

>  <PUBCHEM_CACTVS_HBOND_DONOR>  (1) 
1

>  <PUBCHEM_CACTVS_ROTATABLE_BOND>  (1) 
0

>  <PUBCHEM_CACTVS_SUBSKEYS>  (1) 
AAADceB4MAAAAAAAAAAAAAAAAAAAAYAAAAAwYMAAAAAAAGDAAAAAGgAACAAADxSggAICAAAAAgAIAIAQAAAAAAAAAAAAAAEAAAAAEBIAAAAAQAAEAAAAAAGIyPCPgAAAAAAAAACAAAQAACAAAIAADAAAAA==

>  <PUBCHEM_IUPAC_OPENEYE_NAME>  (1) 
17-hydroxy-10,13-dimethyl-1,2,4,5,6,7,8,9,11,12,14,15,16,17-tetradecahydrocyclopenta[a]phenanthren-3-one

>  <PUBCHEM_IUPAC_CAS_NAME>  (1) 
17-hydroxy-10,13-dimethyl-1,2,4,5,6,7,8,9,11,12,14,15,16,17-tetradecahydrocyclopenta[a]phenanthren-3-one

>  <PUBCHEM_IUPAC_NAME_MARKUP>  (1) 
17-hydroxy-10,13-dimethyl-1,2,4,5,6,7,8,9,11,12,14,15,16,17-tetradecahydrocyclopenta[a]phenanthren-3-one

>  <PUBCHEM_IUPAC_NAME>  (1) 
17-hydroxy-10,13-dimethyl-1,2,4,5,6,7,8,9,11,12,14,15,16,17-tetradecahydrocyclopenta[a]phenanthren-3-one

>  <PUBCHEM_IUPAC_SYSTEMATIC_NAME>  (1) 
10,13-dimethyl-17-oxidanyl-1,2,4,5,6,7,8,9,11,12,14,15,16,17-tetradecahydrocyclopenta[a]phenanthren-3-one

>  <PUBCHEM_IUPAC_TRADITIONAL_NAME>  (1) 
17-hydroxy-10,13-dimethyl-1,2,4,5,6,7,8,9,11,12,14,15,16,17-tetradecahydrocyclopenta[a]phenanthren-3-one

>  <PUBCHEM_IUPAC_INCHI>  (1) 
InChI=1S/C19H30O2/c1-18-9-7-13(20)11-12(18)3-4-14-15-5-6-17(21)19(15,2)10-8-16(14)18/h12,14-17,21H,3-11H2,1-2H3

>  <PUBCHEM_IUPAC_INCHIKEY>  (1) 
NVKAWKQGWWIWPM-UHFFFAOYSA-N

>  <PUBCHEM_XLOGP3>  (1) 
3.7

>  <PUBCHEM_EXACT_MASS>  (1) 
290.22458

>  <PUBCHEM_MOLECULAR_FORMULA>  (1) 
C19H30O2

>  <PUBCHEM_MOLECULAR_WEIGHT>  (1) 
290.4

>  <PUBCHEM_OPENEYE_CAN_SMILES>  (1) 
CC12CCC(=O)CC1CCC3C2CCC4(C3CCC4O)C

>  <PUBCHEM_OPENEYE_ISO_SMILES>  (1) 
CC12CCC(=O)CC1CCC3C2CCC4(C3CCC4O)C

>  <PUBCHEM_CACTVS_TPSA>  (1) 
37.3

>  <PUBCHEM_MONOISOTOPIC_WEIGHT>  (1) 
290.22458

>  <PUBCHEM_TOTAL_CHARGE>  (1) 
0

>  <PUBCHEM_HEAVY_ATOM_COUNT>  (1) 
21

>  <PUBCHEM_ATOM_DEF_STEREO_COUNT>  (1) 
0

>  <PUBCHEM_ATOM_UDEF_STEREO_COUNT>  (1) 
7

>  <PUBCHEM_BOND_DEF_STEREO_COUNT>  (1) 
0

>  <PUBCHEM_BOND_UDEF_STEREO_COUNT>  (1) 
0

>  <PUBCHEM_ISOTOPIC_ATOM_COUNT>  (1) 
0

>  <PUBCHEM_COMPONENT_COUNT>  (1) 
1

>  <PUBCHEM_CACTVS_TAUTO_COUNT>  (1) 
-1

>  <PUBCHEM_COORDINATE_TYPE>  (1) 
1
5
255

>  <PUBCHEM_BONDANNOTATIONS>  (1) 
13  1  3
3  11  3
4  9  3
5  12  3
6  17  3
7  18  3
8  14  3

$$$$
