150
     RDKit          2D

 14 14  0  0  1  0  0  0  0  0999 V2000
    3.4447   -0.1456    0.0000 P   0  0  0  0  0  0  0  0  0  0  0  0
   -1.0542   -1.2501    0.0000 O   0  0  0  0  0  0  0  0  0  0  0  0
   -1.5939    2.5936    0.0000 O   0  0  0  0  0  0  0  0  0  0  0  0
   -4.3354    0.8233    0.0000 O   0  0  0  0  0  0  0  0  0  0  0  0
    1.9948   -0.5301    0.0000 O   0  0  0  0  0  0  0  0  0  0  0  0
    3.0602    1.3043    0.0000 O   0  0  0  0  0  0  0  0  0  0  0  0
    4.8945    0.2388    0.0000 O   0  0  0  0  0  0  0  0  0  0  0  0
    3.8291   -1.5955    0.0000 O   0  0  0  0  0  0  0  0  0  0  0  0
   -3.4990   -2.3310    0.0000 N   0  0  0  0  0  0  0  0  0  0  0  0
   -1.6763    1.0958    0.0000 C   0  0  0  0  0  0  0  0  0  0  0  0
   -0.5130    0.1488    0.0000 C   0  0  0  0  0  0  0  0  0  0  0  0
   -2.9364    0.2822    0.0000 C   0  0  0  0  0  0  0  0  0  0  0  0
   -2.5520   -1.1677    0.0000 C   0  0  0  0  0  0  0  0  0  0  0  0
    0.9369    0.5333    0.0000 C   0  0  0  0  0  0  0  0  0  0  0  0
  1  5  1  0
  1  6  1  0
  1  7  1  0
  1  8  2  0
  2 11  1  0
  2 13  1  0
  3 10  1  0
  4 12  1  0
  5 14  1  0
  9 13  1  0
 10 11  1  0
 10 12  1  0
 11 14  1  0
 12 13  1  0
M  END
>  <PUBCHEM_COMPOUND_CID>  (1) 
150

>  <PUBCHEM_COMPOUND_CANONICALIZED>  (1) 
1

>  <PUBCHEM_CACTVS_COMPLEXITY>  (1) 
242

>  <PUBCHEM_CACTVS_HBOND_ACCEPTOR>  (1) 
8

>  <PUBCHEM_CACTVS_HBOND_DONOR>  (1) 
5

>  <PUBCHEM_CACTVS_ROTATABLE_BOND>  (1) 
3

>  <PUBCHEM_CACTVS_SUBSKEYS>  (1) 
AAADccBiOAIAAAAAAAAAAAAAAAAAASAAAAAAAAAAAAAAAAAAAAAAHgAQCCAACBThgAYAAABABxAAQAAAAIAAAAAAAAAAAIAAAAEDEAIAgAAKQAAHEAADAADwMAAAAAAAAAAAAAAAAAAAAAAAAAAAAAAAAA==

>  <PUBCHEM_IUPAC_OPENEYE_NAME>  (1) 
(5-amino-3,4-dihydroxy-tetrahydrofuran-2-yl)methyl dihydrogen phosphate

>  <PUBCHEM_IUPAC_CAS_NAME>  (1) 
(5-amino-3,4-dihydroxy-2-oxolanyl)methyl dihydrogen phosphate

>  <PUBCHEM_IUPAC_NAME_MARKUP>  (1) 
(5-amino-3,4-dihydroxyoxolan-2-yl)methyl dihydrogen phosphate

>  <PUBCHEM_IUPAC_NAME>  (1) 
(5-amino-3,4-dihydroxyoxolan-2-yl)methyl dihydrogen phosphate

>  <PUBCHEM_IUPAC_SYSTEMATIC_NAME>  (1) 
[5-azanyl-3,4-bis(oxidanyl)oxolan-2-yl]methyl dihydrogen phosphate

>  <PUBCHEM_IUPAC_TRADITIONAL_NAME>  (1) 
(5-amino-3,4-dihydroxy-tetrahydrofuran-2-yl)methyl dihydrogen phosphate

>  <PUBCHEM_IUPAC_INCHI>  (1) 
InChI=1S/C5H12NO7P/c6-5-4(8)3(7)2(13-5)1-12-14(9,10)11/h2-5,7-8H,1,6H2,(H2,9,10,11)

>  <PUBCHEM_IUPAC_INCHIKEY>  (1) 
SKCBPEVYGOQGJN-UHFFFAOYSA-N

>  <PUBCHEM_XLOGP3_AA>  (1) 
-6.2

>  <PUBCHEM_EXACT_MASS>  (1) 
229.035139

>  <PUBCHEM_MOLECULAR_FORMULA>  (1) 
C5H12NO7P

>  <PUBCHEM_MOLECULAR_WEIGHT>  (1) 
229.13

>  <PUBCHEM_OPENEYE_CAN_SMILES>  (1) 
C(C1C(C(C(O1)N)O)O)OP(=O)(O)O

>  <PUBCHEM_OPENEYE_ISO_SMILES>  (1) 
C(C1C(C(C(O1)N)O)O)OP(=O)(O)O

>  <PUBCHEM_CACTVS_TPSA>  (1) 
143

>  <PUBCHEM_MONOISOTOPIC_WEIGHT>  (1) 
229.035139

>  <PUBCHEM_TOTAL_CHARGE>  (1) 
0

>  <PUBCHEM_HEAVY_ATOM_COUNT>  (1) 
14

>  <PUBCHEM_ATOM_DEF_STEREO_COUNT>  (1) 
0

>  <PUBCHEM_ATOM_UDEF_STEREO_COUNT>  (1) 
4

>  <PUBCHEM_BOND_DEF_STEREO_COUNT>  (1) 
0

>  <PUBCHEM_BOND_UDEF_STEREO_COUNT>  (1) 
0

>  <PUBCHEM_ISOTOPIC_ATOM_COUNT>  (1) 
0

>  <PUBCHEM_COMPONENT_COUNT>  (1) 
1

>  <PUBCHEM_CACTVS_TAUTO_COUNT>  (1) 
-1

>  <PUBCHEM_COORDINATE_TYPE>  (1) 
1
5
255

>  <PUBCHEM_BONDANNOTATIONS>  (1) 
11  14  3
10  3  3
12  4  3
13  9  3

$$$$
