152
     RDKit          2D

 18 18  0  0  1  0  0  0  0  0999 V2000
    4.0010   -1.2626    0.0000 P   0  0  0  0  0  0  0  0  0  0  0  0
   -0.4483    0.0273    0.0000 O   0  0  0  0  0  0  0  0  0  0  0  0
    1.0037    3.6269    0.0000 O   0  0  0  0  0  0  0  0  0  0  0  0
   -2.2555    3.4623    0.0000 O   0  0  0  0  0  0  0  0  0  0  0  0
    2.5528   -0.8716    0.0000 O   0  0  0  0  0  0  0  0  0  0  0  0
   -2.1797   -2.1155    0.0000 O   0  0  0  0  0  0  0  0  0  0  0  0
    4.3920    0.1856    0.0000 O   0  0  0  0  0  0  0  0  0  0  0  0
    5.4491   -1.6535    0.0000 O   0  0  0  0  0  0  0  0  0  0  0  0
    3.6100   -2.7107    0.0000 O   0  0  0  0  0  0  0  0  0  0  0  0
   -3.1062    0.3117    0.0000 N   0  0  0  0  0  0  0  0  0  0  0  0
   -4.9825   -3.1853    0.0000 N   0  0  0  0  0  0  0  0  0  0  0  0
    0.1843    2.3704    0.0000 C   0  0  0  0  0  0  0  0  0  0  0  0
    0.7192    0.9690    0.0000 C   0  0  0  0  0  0  0  0  0  0  0  0
   -1.3138    2.2948    0.0000 C   0  0  0  0  0  0  0  0  0  0  0  0
   -1.7048    0.8466    0.0000 C   0  0  0  0  0  0  0  0  0  0  0  0
    2.1673    0.5781    0.0000 C   0  0  0  0  0  0  0  0  0  0  0  0
   -3.3436   -1.1693    0.0000 C   0  0  0  0  0  0  0  0  0  0  0  0
   -4.7450   -1.7042    0.0000 C   0  0  0  0  0  0  0  0  0  0  0  0
  1  5  1  0
  1  7  1  0
  1  8  1  0
  1  9  2  0
  2 13  1  0
  2 15  1  0
  3 12  1  0
  4 14  1  0
  5 16  1  0
  6 17  2  0
 10 15  1  0
 10 17  1  0
 11 18  1  0
 12 13  1  0
 12 14  1  0
 13 16  1  0
 14 15  1  0
 17 18  1  0
M  END
>  <PUBCHEM_COMPOUND_CID>  (1) 
152

>  <PUBCHEM_COMPOUND_CANONICALIZED>  (1) 
1

>  <PUBCHEM_CACTVS_COMPLEXITY>  (1) 
346

>  <PUBCHEM_CACTVS_HBOND_ACCEPTOR>  (1) 
9

>  <PUBCHEM_CACTVS_HBOND_DONOR>  (1) 
6

>  <PUBCHEM_CACTVS_ROTATABLE_BOND>  (1) 
5

>  <PUBCHEM_CACTVS_SUBSKEYS>  (1) 
AAADccBjPAIAAAAAAAAAAAAAAAAAASAAAAAAAAAAAAAAAAAAAAAAHgAQCCAACBThgAYAAALABxAIQAEQEIAAAAAAAAAAAICIAAEDUAIAgAAeQAAHFgCTAADwMAIAAAAAAAAAAAAAAAAAAAAAAAAAAAAAAA==

>  <PUBCHEM_IUPAC_OPENEYE_NAME>  (1) 
[5-[(2-aminoacetyl)amino]-3,4-dihydroxy-tetrahydrofuran-2-yl]methyl dihydrogen phosphate

>  <PUBCHEM_IUPAC_CAS_NAME>  (1) 
[5-[(2-amino-1-oxoethyl)amino]-3,4-dihydroxy-2-oxolanyl]methyl dihydrogen phosphate

>  <PUBCHEM_IUPAC_NAME_MARKUP>  (1) 
[5-[(2-aminoacetyl)amino]-3,4-dihydroxyoxolan-2-yl]methyl dihydrogen phosphate

>  <PUBCHEM_IUPAC_NAME>  (1) 
[5-[(2-aminoacetyl)amino]-3,4-dihydroxyoxolan-2-yl]methyl dihydrogen phosphate

>  <PUBCHEM_IUPAC_SYSTEMATIC_NAME>  (1) 
[5-(2-azanylethanoylamino)-3,4-bis(oxidanyl)oxolan-2-yl]methyl dihydrogen phosphate

>  <PUBCHEM_IUPAC_TRADITIONAL_NAME>  (1) 
[5-(glycylamino)-3,4-dihydroxy-tetrahydrofuran-2-yl]methyl dihydrogen phosphate

>  <PUBCHEM_IUPAC_INCHI>  (1) 
InChI=1S/C7H15N2O8P/c8-1-4(10)9-7-6(12)5(11)3(17-7)2-16-18(13,14)15/h3,5-7,11-12H,1-2,8H2,(H,9,10)(H2,13,14,15)

>  <PUBCHEM_IUPAC_INCHIKEY>  (1) 
OBQMLSFOUZUIOB-UHFFFAOYSA-N

>  <PUBCHEM_XLOGP3_AA>  (1) 
-6.8

>  <PUBCHEM_EXACT_MASS>  (1) 
286.056602

>  <PUBCHEM_MOLECULAR_FORMULA>  (1) 
C7H15N2O8P

>  <PUBCHEM_MOLECULAR_WEIGHT>  (1) 
286.18

>  <PUBCHEM_OPENEYE_CAN_SMILES>  (1) 
C(C1C(C(C(O1)NC(=O)CN)O)O)OP(=O)(O)O

>  <PUBCHEM_OPENEYE_ISO_SMILES>  (1) 
C(C1C(C(C(O1)NC(=O)CN)O)O)OP(=O)(O)O

>  <PUBCHEM_CACTVS_TPSA>  (1) 
172

>  <PUBCHEM_MONOISOTOPIC_WEIGHT>  (1) 
286.056602

>  <PUBCHEM_TOTAL_CHARGE>  (1) 
0

>  <PUBCHEM_HEAVY_ATOM_COUNT>  (1) 
18

>  <PUBCHEM_ATOM_DEF_STEREO_COUNT>  (1) 
0

>  <PUBCHEM_ATOM_UDEF_STEREO_COUNT>  (1) 
4

>  <PUBCHEM_BOND_DEF_STEREO_COUNT>  (1) 
0

>  <PUBCHEM_BOND_UDEF_STEREO_COUNT>  (1) 
0

>  <PUBCHEM_ISOTOPIC_ATOM_COUNT>  (1) 
0

>  <PUBCHEM_COMPONENT_COUNT>  (1) 
1

>  <PUBCHEM_CACTVS_TAUTO_COUNT>  (1) 
-1

>  <PUBCHEM_COORDINATE_TYPE>  (1) 
1
5
255

>  <PUBCHEM_BONDANNOTATIONS>  (1) 
15  10  3
13  16  3
12  3  3
14  4  3

$$$$
