153
     RDKit          2D

 19 20  0  0  1  0  0  0  0  0999 V2000
    4.6779   -0.7942    0.0000 P   0  0  0  0  0  0  0  0  0  0  0  0
    0.0557   -0.4866    0.0000 O   0  0  0  0  0  0  0  0  0  0  0  0
    0.7036    3.3404    0.0000 O   0  0  0  0  0  0  0  0  0  0  0  0
   -2.4449    2.4820    0.0000 O   0  0  0  0  0  0  0  0  0  0  0  0
    3.1796   -0.7222    0.0000 O   0  0  0  0  0  0  0  0  0  0  0  0
    4.7499    0.7041    0.0000 O   0  0  0  0  0  0  0  0  0  0  0  0
    6.1762   -0.8662    0.0000 O   0  0  0  0  0  0  0  0  0  0  0  0
    4.6060   -2.2925    0.0000 O   0  0  0  0  0  0  0  0  0  0  0  0
   -2.6015   -0.7776    0.0000 N   0  0  0  0  0  0  0  0  0  0  0  0
   -4.1206   -2.6704    0.0000 N   0  0  0  0  0  0  0  0  0  0  0  0
   -4.3987    1.2010    0.0000 N   0  0  0  0  0  0  0  0  0  0  0  0
    0.1721    1.9377    0.0000 C   0  0  0  0  0  0  0  0  0  0  0  0
   -1.2751    1.5431    0.0000 C   0  0  0  0  0  0  0  0  0  0  0  0
    0.9946    0.6832    0.0000 C   0  0  0  0  0  0  0  0  0  0  0  0
   -1.3470    0.0449    0.0000 C   0  0  0  0  0  0  0  0  0  0  0  0
    2.4928    0.6113    0.0000 C   0  0  0  0  0  0  0  0  0  0  0  0
   -4.0042   -0.2461    0.0000 C   0  0  0  0  0  0  0  0  0  0  0  0
   -2.6734   -2.2759    0.0000 C   0  0  0  0  0  0  0  0  0  0  0  0
   -4.9430   -1.4160    0.0000 C   0  0  0  0  0  0  0  0  0  0  0  0
  1  5  1  0
  1  6  1  0
  1  7  1  0
  1  8  2  0
  2 14  1  0
  2 15  1  0
  3 12  1  0
  4 13  1  0
  5 16  1  0
  9 15  1  0
  9 17  1  0
  9 18  1  0
 10 18  2  0
 10 19  1  0
 11 17  1  0
 12 13  1  0
 12 14  1  0
 13 15  1  0
 14 16  1  0
 17 19  2  0
M  END
>  <PUBCHEM_COMPOUND_CID>  (1) 
153

>  <PUBCHEM_COMPOUND_CANONICALIZED>  (1) 
1

>  <PUBCHEM_CACTVS_COMPLEXITY>  (1) 
366

>  <PUBCHEM_CACTVS_HBOND_ACCEPTOR>  (1) 
9

>  <PUBCHEM_CACTVS_HBOND_DONOR>  (1) 
5

>  <PUBCHEM_CACTVS_ROTATABLE_BOND>  (1) 
4

>  <PUBCHEM_CACTVS_SUBSKEYS>  (1) 
AAADccBzOAIAAAAAAAAAAAAAAAAAAWJAAAAAAAAAAAAAAAABgAAAHgAQCCAACBThggYtsBdMFxCgQBInZIAAgC0REqABQAAYMACDWAIAiAAeQAAPEAKTACDwMAIAAAAAAAAAAAAAAAAAAAAAAAAAAAAAAA==

>  <PUBCHEM_IUPAC_OPENEYE_NAME>  (1) 
[5-(5-aminoimidazol-1-yl)-3,4-dihydroxy-tetrahydrofuran-2-yl]methyl dihydrogen phosphate

>  <PUBCHEM_IUPAC_CAS_NAME>  (1) 
[5-(5-amino-1-imidazolyl)-3,4-dihydroxy-2-oxolanyl]methyl dihydrogen phosphate

>  <PUBCHEM_IUPAC_NAME_MARKUP>  (1) 
[5-(5-aminoimidazol-1-yl)-3,4-dihydroxyoxolan-2-yl]methyl dihydrogen phosphate

>  <PUBCHEM_IUPAC_NAME>  (1) 
[5-(5-aminoimidazol-1-yl)-3,4-dihydroxyoxolan-2-yl]methyl dihydrogen phosphate

>  <PUBCHEM_IUPAC_SYSTEMATIC_NAME>  (1) 
[5-(5-azanylimidazol-1-yl)-3,4-bis(oxidanyl)oxolan-2-yl]methyl dihydrogen phosphate

>  <PUBCHEM_IUPAC_TRADITIONAL_NAME>  (1) 
[5-(5-aminoimidazol-1-yl)-3,4-dihydroxy-tetrahydrofuran-2-yl]methyl dihydrogen phosphate

>  <PUBCHEM_IUPAC_INCHI>  (1) 
InChI=1S/C8H14N3O7P/c9-5-1-10-3-11(5)8-7(13)6(12)4(18-8)2-17-19(14,15)16/h1,3-4,6-8,12-13H,2,9H2,(H2,14,15,16)

>  <PUBCHEM_IUPAC_INCHIKEY>  (1) 
PDACUKOKVHBVHJ-UHFFFAOYSA-N

>  <PUBCHEM_XLOGP3_AA>  (1) 
-3.6

>  <PUBCHEM_EXACT_MASS>  (1) 
295.056937

>  <PUBCHEM_MOLECULAR_FORMULA>  (1) 
C8H14N3O7P

>  <PUBCHEM_MOLECULAR_WEIGHT>  (1) 
295.19

>  <PUBCHEM_OPENEYE_CAN_SMILES>  (1) 
C1=C(N(C=N1)C2C(C(C(O2)COP(=O)(O)O)O)O)N

>  <PUBCHEM_OPENEYE_ISO_SMILES>  (1) 
C1=C(N(C=N1)C2C(C(C(O2)COP(=O)(O)O)O)O)N

>  <PUBCHEM_CACTVS_TPSA>  (1) 
160

>  <PUBCHEM_MONOISOTOPIC_WEIGHT>  (1) 
295.056937

>  <PUBCHEM_TOTAL_CHARGE>  (1) 
0

>  <PUBCHEM_HEAVY_ATOM_COUNT>  (1) 
19

>  <PUBCHEM_ATOM_DEF_STEREO_COUNT>  (1) 
0

>  <PUBCHEM_ATOM_UDEF_STEREO_COUNT>  (1) 
4

>  <PUBCHEM_BOND_DEF_STEREO_COUNT>  (1) 
0

>  <PUBCHEM_BOND_UDEF_STEREO_COUNT>  (1) 
0

>  <PUBCHEM_ISOTOPIC_ATOM_COUNT>  (1) 
0

>  <PUBCHEM_COMPONENT_COUNT>  (1) 
1

>  <PUBCHEM_CACTVS_TAUTO_COUNT>  (1) 
-1

>  <PUBCHEM_COORDINATE_TYPE>  (1) 
1
5
255

>  <PUBCHEM_BONDANNOTATIONS>  (1) 
10  18  8
10  19  8
14  16  3
17  19  8
12  3  3
13  4  3
15  9  3
9  17  8
9  18  8

$$$$
