154
     RDKit          2D

 20 20  0  0  1  0  0  0  0  0999 V2000
    4.1682   -2.2195    0.0000 P   0  0  0  0  0  0  0  0  0  0  0  0
    0.3389    0.3873    0.0000 O   0  0  0  0  0  0  0  0  0  0  0  0
    2.8362    3.3586    0.0000 O   0  0  0  0  0  0  0  0  0  0  0  0
   -0.3132    4.2136    0.0000 O   0  0  0  0  0  0  0  0  0  0  0  0
    2.9129   -1.3985    0.0000 O   0  0  0  0  0  0  0  0  0  0  0  0
    4.9893   -0.9642    0.0000 O   0  0  0  0  0  0  0  0  0  0  0  0
    5.4236   -3.0406    0.0000 O   0  0  0  0  0  0  0  0  0  0  0  0
    3.3472   -3.4749    0.0000 O   0  0  0  0  0  0  0  0  0  0  0  0
   -7.1519   -2.6675    0.0000 O   0  0  0  0  0  0  0  0  0  0  0  0
   -2.0995    1.4825    0.0000 N   0  0  0  0  0  0  0  0  0  0  0  0
   -1.9720   -1.1124    0.0000 N   0  0  0  0  0  0  0  0  0  0  0  0
   -4.9684   -1.2596    0.0000 N   0  0  0  0  0  0  0  0  0  0  0  0
    1.6674    2.4185    0.0000 C   0  0  0  0  0  0  0  0  0  0  0  0
    1.7410    0.9203    0.0000 C   0  0  0  0  0  0  0  0  0  0  0  0
    0.2198    2.8114    0.0000 C   0  0  0  0  0  0  0  0  0  0  0  0
   -0.6013    1.5561    0.0000 C   0  0  0  0  0  0  0  0  0  0  0  0
    2.9963    0.0992    0.0000 C   0  0  0  0  0  0  0  0  0  0  0  0
   -2.7848    0.1482    0.0000 C   0  0  0  0  0  0  0  0  0  0  0  0
   -4.2830    0.0746    0.0000 C   0  0  0  0  0  0  0  0  0  0  0  0
   -6.4666   -1.3332    0.0000 C   0  0  0  0  0  0  0  0  0  0  0  0
  1  5  1  0
  1  6  1  0
  1  7  1  0
  1  8  2  0
  2 14  1  0
  2 16  1  0
  3 13  1  0
  4 15  1  0
  5 17  1  0
  9 20  2  0
 10 16  1  0
 10 18  2  3
 11 18  1  0
 12 19  1  0
 12 20  1  0
 13 14  1  0
 13 15  1  0
 14 17  1  0
 15 16  1  0
 18 19  1  0
M  END
>  <PUBCHEM_COMPOUND_CID>  (1) 
154

>  <PUBCHEM_COMPOUND_CANONICALIZED>  (1) 
1

>  <PUBCHEM_CACTVS_COMPLEXITY>  (1) 
413

>  <PUBCHEM_CACTVS_HBOND_ACCEPTOR>  (1) 
9

>  <PUBCHEM_CACTVS_HBOND_DONOR>  (1) 
6

>  <PUBCHEM_CACTVS_ROTATABLE_BOND>  (1) 
6

>  <PUBCHEM_CACTVS_SUBSKEYS>  (1) 
AAADceBzPAIAAAAAAAAAAAAAAAAAASAAAAAAAAAAAAAAAAAAAAAAHgAQCCAACBThgAYBAALABxAoQAIgtIAAAAEAAAAAAIAYAAADUAIAgAAaQAAHFgADAADwMAAAAAAAAAAAAAAAAAAAAAAAAAAAAAAAAA==

>  <PUBCHEM_IUPAC_OPENEYE_NAME>  (1) 
[5-[(1-amino-2-formamido-ethylidene)amino]-3,4-dihydroxy-tetrahydrofuran-2-yl]methyl dihydrogen phosphate

>  <PUBCHEM_IUPAC_CAS_NAME>  (1) 
[5-[(1-amino-2-formamidoethylidene)amino]-3,4-dihydroxy-2-oxolanyl]methyl dihydrogen phosphate

>  <PUBCHEM_IUPAC_NAME_MARKUP>  (1) 
[5-[(1-amino-2-formamidoethylidene)amino]-3,4-dihydroxyoxolan-2-yl]methyl dihydrogen phosphate

>  <PUBCHEM_IUPAC_NAME>  (1) 
[5-[(1-amino-2-formamidoethylidene)amino]-3,4-dihydroxyoxolan-2-yl]methyl dihydrogen phosphate

>  <PUBCHEM_IUPAC_SYSTEMATIC_NAME>  (1) 
[5-[(1-azanyl-2-formamido-ethylidene)amino]-3,4-bis(oxidanyl)oxolan-2-yl]methyl dihydrogen phosphate

>  <PUBCHEM_IUPAC_TRADITIONAL_NAME>  (1) 
[5-[(1-amino-2-formamido-ethylidene)amino]-3,4-dihydroxy-tetrahydrofuran-2-yl]methyl dihydrogen phosphate

>  <PUBCHEM_IUPAC_INCHI>  (1) 
InChI=1S/C8H16N3O8P/c9-5(1-10-3-12)11-8-7(14)6(13)4(19-8)2-18-20(15,16)17/h3-4,6-8,13-14H,1-2H2,(H2,9,11)(H,10,12)(H2,15,16,17)

>  <PUBCHEM_IUPAC_INCHIKEY>  (1) 
PMCOGCVKOAOZQM-UHFFFAOYSA-N

>  <PUBCHEM_XLOGP3_AA>  (1) 
-4.6

>  <PUBCHEM_EXACT_MASS>  (1) 
313.067501

>  <PUBCHEM_MOLECULAR_FORMULA>  (1) 
C8H16N3O8P

>  <PUBCHEM_MOLECULAR_WEIGHT>  (1) 
313.2

>  <PUBCHEM_OPENEYE_CAN_SMILES>  (1) 
C(C1C(C(C(O1)N=C(CNC=O)N)O)O)OP(=O)(O)O

>  <PUBCHEM_OPENEYE_ISO_SMILES>  (1) 
C(C1C(C(C(O1)N=C(CNC=O)N)O)O)OP(=O)(O)O

>  <PUBCHEM_CACTVS_TPSA>  (1) 
184

>  <PUBCHEM_MONOISOTOPIC_WEIGHT>  (1) 
313.067501

>  <PUBCHEM_TOTAL_CHARGE>  (1) 
0

>  <PUBCHEM_HEAVY_ATOM_COUNT>  (1) 
20

>  <PUBCHEM_ATOM_DEF_STEREO_COUNT>  (1) 
0

>  <PUBCHEM_ATOM_UDEF_STEREO_COUNT>  (1) 
4

>  <PUBCHEM_BOND_DEF_STEREO_COUNT>  (1) 
0

>  <PUBCHEM_BOND_UDEF_STEREO_COUNT>  (1) 
1

>  <PUBCHEM_ISOTOPIC_ATOM_COUNT>  (1) 
0

>  <PUBCHEM_COMPONENT_COUNT>  (1) 
1

>  <PUBCHEM_CACTVS_TAUTO_COUNT>  (1) 
-1

>  <PUBCHEM_COORDINATE_TYPE>  (1) 
1
5
255

>  <PUBCHEM_BONDANNOTATIONS>  (1) 
16  10  3
10  18  1
14  17  3
13  3  3
15  4  3

$$$$
