156
     RDKit          2D

 10 11  0  0  0  0  0  0  0  0999 V2000
   -1.2990   -1.5000    0.0000 N   0  0  0  0  0  0  0  0  0  0  0  0
   -1.2990    1.5000    0.0000 N   0  0  0  0  0  0  0  0  0  0  0  0
    1.2990    1.5000    0.0000 N   0  0  0  0  0  0  0  0  0  0  0  0
    2.5981   -0.7500    0.0000 N   0  0  0  0  0  0  0  0  0  0  0  0
   -2.5981   -0.7500    0.0000 C   0  0  0  0  0  0  0  0  0  0  0  0
   -2.5981    0.7500    0.0000 C   0  0  0  0  0  0  0  0  0  0  0  0
   -0.0000   -0.7500    0.0000 C   0  0  0  0  0  0  0  0  0  0  0  0
    0.0000    0.7500    0.0000 C   0  0  0  0  0  0  0  0  0  0  0  0
    1.2990   -1.5000    0.0000 C   0  0  0  0  0  0  0  0  0  0  0  0
    2.5981    0.7500    0.0000 C   0  0  0  0  0  0  0  0  0  0  0  0
  1  5  1  0
  1  7  1  0
  2  6  1  0
  2  8  1  0
  3  8  1  0
  3 10  2  0
  4  9  2  0
  4 10  1  0
  5  6  1  0
  7  8  2  0
  7  9  1  0
M  END
>  <PUBCHEM_COMPOUND_CID>  (1) 
156

>  <PUBCHEM_COMPOUND_CANONICALIZED>  (1) 
1

>  <PUBCHEM_CACTVS_COMPLEXITY>  (1) 
116

>  <PUBCHEM_CACTVS_HBOND_ACCEPTOR>  (1) 
4

>  <PUBCHEM_CACTVS_HBOND_DONOR>  (1) 
2

>  <PUBCHEM_CACTVS_ROTATABLE_BOND>  (1) 
0

>  <PUBCHEM_CACTVS_SUBSKEYS>  (1) 
AAADccBjgAAAAAAAAAAAAAAAAAAAAAAAAAAsWAAAAAAAAACxgAAAHAAQAAAACAjBEgQt8JbIEACgABZnZACAgCkREqABUKAodBCASIBASEAUBAgIEALAACAAAAAAAAAAAAAAAAAAAAAAAAAAAAAAAAAAAA==

>  <PUBCHEM_IUPAC_OPENEYE_NAME>  (1) 
5,6,7,8-tetrahydropteridine

>  <PUBCHEM_IUPAC_CAS_NAME>  (1) 
5,6,7,8-tetrahydropteridine

>  <PUBCHEM_IUPAC_NAME_MARKUP>  (1) 
5,6,7,8-tetrahydropteridine

>  <PUBCHEM_IUPAC_NAME>  (1) 
5,6,7,8-tetrahydropteridine

>  <PUBCHEM_IUPAC_SYSTEMATIC_NAME>  (1) 
5,6,7,8-tetrahydropteridine

>  <PUBCHEM_IUPAC_TRADITIONAL_NAME>  (1) 
5,6,7,8-tetrahydropteridine

>  <PUBCHEM_IUPAC_INCHI>  (1) 
InChI=1S/C6H8N4/c1-2-9-6-5(8-1)3-7-4-10-6/h3-4,8H,1-2H2,(H,7,9,10)

>  <PUBCHEM_IUPAC_INCHIKEY>  (1) 
IDAICLIJTRXNER-UHFFFAOYSA-N

>  <PUBCHEM_XLOGP3_AA>  (1) 
0.3

>  <PUBCHEM_EXACT_MASS>  (1) 
136.074896

>  <PUBCHEM_MOLECULAR_FORMULA>  (1) 
C6H8N4

>  <PUBCHEM_MOLECULAR_WEIGHT>  (1) 
136.15

>  <PUBCHEM_OPENEYE_CAN_SMILES>  (1) 
C1CNC2=NC=NC=C2N1

>  <PUBCHEM_OPENEYE_ISO_SMILES>  (1) 
C1CNC2=NC=NC=C2N1

>  <PUBCHEM_CACTVS_TPSA>  (1) 
49.8

>  <PUBCHEM_MONOISOTOPIC_WEIGHT>  (1) 
136.074896

>  <PUBCHEM_TOTAL_CHARGE>  (1) 
0

>  <PUBCHEM_HEAVY_ATOM_COUNT>  (1) 
10

>  <PUBCHEM_ATOM_DEF_STEREO_COUNT>  (1) 
0

>  <PUBCHEM_ATOM_UDEF_STEREO_COUNT>  (1) 
0

>  <PUBCHEM_BOND_DEF_STEREO_COUNT>  (1) 
0

>  <PUBCHEM_BOND_UDEF_STEREO_COUNT>  (1) 
0

>  <PUBCHEM_ISOTOPIC_ATOM_COUNT>  (1) 
0

>  <PUBCHEM_COMPONENT_COUNT>  (1) 
1

>  <PUBCHEM_CACTVS_TAUTO_COUNT>  (1) 
-1

>  <PUBCHEM_COORDINATE_TYPE>  (1) 
1
5
255

>  <PUBCHEM_BONDANNOTATIONS>  (1) 
3  10  8
3  8  8
4  10  8
4  9  8
7  8  8
7  9  8

$$$$
