159
     RDKit          2D

 25 26  0  0  1  0  0  0  0  0999 V2000
   -2.6171   -3.0193    0.0000 O   0  0  0  0  0  0  0  0  0  0  0  0
    2.7360   -3.4891    0.0000 O   0  0  0  0  0  0  0  0  0  0  0  0
    3.4975    2.0407    0.0000 O   0  0  0  0  0  0  0  0  0  0  0  0
   -8.2874    4.2063    0.0000 O   0  0  0  0  0  0  0  0  0  0  0  0
   -9.0932    1.7363    0.0000 O   0  0  0  0  0  0  0  0  0  0  0  0
   -0.6519   -1.5950    0.0000 C   0  0  0  0  0  0  0  0  0  0  0  0
   -1.1171   -3.0210    0.0000 C   0  0  0  0  0  0  0  0  0  0  0  0
    0.8481   -1.5968    0.0000 C   0  0  0  0  0  0  0  0  0  0  0  0
    1.3100   -3.0239    0.0000 C   0  0  0  0  0  0  0  0  0  0  0  0
    0.0954   -3.9042    0.0000 C   0  0  0  0  0  0  0  0  0  0  0  0
   -1.8644   -0.7119    0.0000 C   0  0  0  0  0  0  0  0  0  0  0  0
   -3.0789   -1.5921    0.0000 C   0  0  0  0  0  0  0  0  0  0  0  0
    1.7312   -0.3843    0.0000 C   0  0  0  0  0  0  0  0  0  0  0  0
   -4.5050   -1.1269    0.0000 C   0  0  0  0  0  0  0  0  0  0  0  0
    3.2228   -0.5429    0.0000 C   0  0  0  0  0  0  0  0  0  0  0  0
    4.1059    0.6696    0.0000 C   0  0  0  0  0  0  0  0  0  0  0  0
   -4.8151    0.3407    0.0000 C   0  0  0  0  0  0  0  0  0  0  0  0
    5.5975    0.5111    0.0000 C   0  0  0  0  0  0  0  0  0  0  0  0
   -6.2411    0.8059    0.0000 C   0  0  0  0  0  0  0  0  0  0  0  0
    6.4807    1.7235    0.0000 C   0  0  0  0  0  0  0  0  0  0  0  0
   -6.5513    2.2735    0.0000 C   0  0  0  0  0  0  0  0  0  0  0  0
    7.9723    1.5650    0.0000 C   0  0  0  0  0  0  0  0  0  0  0  0
    8.8554    2.7775    0.0000 C   0  0  0  0  0  0  0  0  0  0  0  0
   -7.9773    2.7387    0.0000 C   0  0  0  0  0  0  0  0  0  0  0  0
   10.3470    2.6189    0.0000 C   0  0  0  0  0  0  0  0  0  0  0  0
  1  7  1  0
  1 12  1  0
  2  9  1  0
  3 16  1  0
  4 24  1  0
  5 24  2  0
  6  7  1  0
  6  8  1  0
  6 11  1  0
  7 10  1  0
  8  9  1  0
  8 13  1  0
  9 10  1  0
 11 12  1  0
 12 14  2  3
 13 15  2  3
 14 17  1  0
 15 16  1  0
 16 18  1  0
 17 19  1  0
 18 20  1  0
 19 21  1  0
 20 22  1  0
 21 24  1  0
 22 23  1  0
 23 25  1  0
M  END
>  <PUBCHEM_COMPOUND_CID>  (1) 
159

>  <PUBCHEM_COMPOUND_CANONICALIZED>  (1) 
1

>  <PUBCHEM_CACTVS_COMPLEXITY>  (1) 
485

>  <PUBCHEM_CACTVS_HBOND_ACCEPTOR>  (1) 
5

>  <PUBCHEM_CACTVS_HBOND_DONOR>  (1) 
3

>  <PUBCHEM_CACTVS_ROTATABLE_BOND>  (1) 
10

>  <PUBCHEM_CACTVS_SUBSKEYS>  (1) 
AAADcfB4OAAAAAAAAAAAAAAAAAAAAaIAAAAAAAAAAAASAAAAAAAAGgAACAAADRSggAICCAAABgCIACDSCAAACAAgIAAICAEAAAgAFBIAAQACUAAFwAAIEAPI4KwOgAAAAAAAAAAAAAAAAAAAAIQADAAAAA==

>  <PUBCHEM_IUPAC_OPENEYE_NAME>  (1) 
5-[5-hydroxy-4-(3-hydroxyoct-1-enyl)-3,3a,4,5,6,6a-hexahydrocyclopenta[b]furan-2-ylidene]pentanoic acid

>  <PUBCHEM_IUPAC_CAS_NAME>  (1) 
5-[5-hydroxy-4-(3-hydroxyoct-1-enyl)-3,3a,4,5,6,6a-hexahydrocyclopenta[b]furan-2-ylidene]pentanoic acid

>  <PUBCHEM_IUPAC_NAME_MARKUP>  (1) 
5-[5-hydroxy-4-(3-hydroxyoct-1-enyl)-3,3<I>a</I>,4,5,6,6<I>a</I>-hexahydrocyclopenta[b]furan-2-ylidene]pentanoic acid

>  <PUBCHEM_IUPAC_NAME>  (1) 
5-[5-hydroxy-4-(3-hydroxyoct-1-enyl)-3,3a,4,5,6,6a-hexahydrocyclopenta[b]furan-2-ylidene]pentanoic acid

>  <PUBCHEM_IUPAC_SYSTEMATIC_NAME>  (1) 
5-[5-oxidanyl-4-(3-oxidanyloct-1-enyl)-3,3a,4,5,6,6a-hexahydrocyclopenta[b]furan-2-ylidene]pentanoic acid

>  <PUBCHEM_IUPAC_TRADITIONAL_NAME>  (1) 
5-[5-hydroxy-4-(3-hydroxyoct-1-enyl)-3,3a,4,5,6,6a-hexahydrocyclopenta[b]furan-2-ylidene]valeric acid

>  <PUBCHEM_IUPAC_INCHI>  (1) 
InChI=1S/C20H32O5/c1-2-3-4-7-14(21)10-11-16-17-12-15(8-5-6-9-20(23)24)25-19(17)13-18(16)22/h8,10-11,14,16-19,21-22H,2-7,9,12-13H2,1H3,(H,23,24)

>  <PUBCHEM_IUPAC_INCHIKEY>  (1) 
KAQKFAOMNZTLHT-UHFFFAOYSA-N

>  <PUBCHEM_XLOGP3_AA>  (1) 
2.9

>  <PUBCHEM_EXACT_MASS>  (1) 
352.224974

>  <PUBCHEM_MOLECULAR_FORMULA>  (1) 
C20H32O5

>  <PUBCHEM_MOLECULAR_WEIGHT>  (1) 
352.5

>  <PUBCHEM_OPENEYE_CAN_SMILES>  (1) 
CCCCCC(C=CC1C(CC2C1CC(=CCCCC(=O)O)O2)O)O

>  <PUBCHEM_OPENEYE_ISO_SMILES>  (1) 
CCCCCC(C=CC1C(CC2C1CC(=CCCCC(=O)O)O2)O)O

>  <PUBCHEM_CACTVS_TPSA>  (1) 
87

>  <PUBCHEM_MONOISOTOPIC_WEIGHT>  (1) 
352.224974

>  <PUBCHEM_TOTAL_CHARGE>  (1) 
0

>  <PUBCHEM_HEAVY_ATOM_COUNT>  (1) 
25

>  <PUBCHEM_ATOM_DEF_STEREO_COUNT>  (1) 
0

>  <PUBCHEM_ATOM_UDEF_STEREO_COUNT>  (1) 
5

>  <PUBCHEM_BOND_DEF_STEREO_COUNT>  (1) 
0

>  <PUBCHEM_BOND_UDEF_STEREO_COUNT>  (1) 
2

>  <PUBCHEM_ISOTOPIC_ATOM_COUNT>  (1) 
0

>  <PUBCHEM_COMPONENT_COUNT>  (1) 
1

>  <PUBCHEM_CACTVS_TAUTO_COUNT>  (1) 
-1

>  <PUBCHEM_COORDINATE_TYPE>  (1) 
1
5
255

>  <PUBCHEM_BONDANNOTATIONS>  (1) 
12  14  1
13  15  1
9  2  3
16  3  3
6  11  3
7  10  3
8  13  3

$$$$
