161
     RDKit          2D

 30 31  0  0  1  0  0  0  0  0999 V2000
    3.9540   -1.9061    0.0000 P   0  0  0  0  0  0  0  0  0  0  0  0
    5.9684   -0.2653    0.0000 P   0  0  0  0  0  0  0  0  0  0  0  0
    5.5547    2.2996    0.0000 P   0  0  0  0  0  0  0  0  0  0  0  0
   -0.3688    1.3441    0.0000 O   0  0  0  0  0  0  0  0  0  0  0  0
   -0.4885   -2.6228    0.0000 O   0  0  0  0  0  0  0  0  0  0  0  0
    2.4732   -2.1450    0.0000 O   0  0  0  0  0  0  0  0  0  0  0  0
   -5.2251    3.1923    0.0000 O   0  0  0  0  0  0  0  0  0  0  0  0
    5.4349   -1.6672    0.0000 O   0  0  0  0  0  0  0  0  0  0  0  0
    4.1929   -3.3869    0.0000 O   0  0  0  0  0  0  0  0  0  0  0  0
    3.7151   -0.4252    0.0000 O   0  0  0  0  0  0  0  0  0  0  0  0
    6.5020    1.1366    0.0000 O   0  0  0  0  0  0  0  0  0  0  0  0
    4.5665    0.2683    0.0000 O   0  0  0  0  0  0  0  0  0  0  0  0
    7.3703   -0.7988    0.0000 O   0  0  0  0  0  0  0  0  0  0  0  0
    4.3916    1.3523    0.0000 O   0  0  0  0  0  0  0  0  0  0  0  0
    4.6073    3.4626    0.0000 O   0  0  0  0  0  0  0  0  0  0  0  0
    6.7177    3.2470    0.0000 O   0  0  0  0  0  0  0  0  0  0  0  0
   -4.3976   -1.9375    0.0000 N   0  0  0  0  0  0  0  0  0  0  0  0
   -3.3305    0.8663    0.0000 N   0  0  0  0  0  0  0  0  0  0  0  0
   -6.8257   -1.0134    0.0000 N   0  0  0  0  0  0  0  0  0  0  0  0
   -7.2395    1.5515    0.0000 N   0  0  0  0  0  0  0  0  0  0  0  0
   -9.2539   -0.0893    0.0000 N   0  0  0  0  0  0  0  0  0  0  0  0
   -5.3449   -0.7745    0.0000 C   0  0  0  0  0  0  0  0  0  0  0  0
   -4.8113    0.6274    0.0000 C   0  0  0  0  0  0  0  0  0  0  0  0
   -2.3832   -0.2967    0.0000 C   0  0  0  0  0  0  0  0  0  0  0  0
   -0.9023   -0.0578    0.0000 C   0  0  0  0  0  0  0  0  0  0  0  0
   -2.9167   -1.6986    0.0000 C   0  0  0  0  0  0  0  0  0  0  0  0
    0.0450   -1.2208    0.0000 C   0  0  0  0  0  0  0  0  0  0  0  0
   -5.7586    1.7904    0.0000 C   0  0  0  0  0  0  0  0  0  0  0  0
    1.5259   -0.9820    0.0000 C   0  0  0  0  0  0  0  0  0  0  0  0
   -7.7730    0.1496    0.0000 C   0  0  0  0  0  0  0  0  0  0  0  0
  1  6  1  0
  1  8  1  0
  1  9  1  0
  1 10  2  0
  2  8  1  0
  2 11  1  0
  2 12  1  0
  2 13  2  0
  3 11  1  0
  3 14  1  0
  3 15  1  0
  3 16  2  0
  4 25  1  0
  5 27  1  0
  6 29  1  0
  7 28  2  0
 17 22  1  0
 17 26  1  0
 18 23  1  0
 18 24  2  0
 19 22  1  0
 19 30  2  0
 20 28  1  0
 20 30  1  0
 21 30  1  0
 22 23  1  0
 23 28  1  0
 24 25  1  0
 24 26  1  0
 25 27  1  0
 27 29  1  0
M  END
>  <PUBCHEM_COMPOUND_CID>  (1) 
161

>  <PUBCHEM_COMPOUND_CANONICALIZED>  (1) 
1

>  <PUBCHEM_CACTVS_COMPLEXITY>  (1) 
888

>  <PUBCHEM_CACTVS_HBOND_ACCEPTOR>  (1) 
16

>  <PUBCHEM_CACTVS_HBOND_DONOR>  (1) 
9

>  <PUBCHEM_CACTVS_ROTATABLE_BOND>  (1) 
9

>  <PUBCHEM_CACTVS_SUBSKEYS>  (1) 
AAADceBzvAMAAAAAAAAAAAAAAAAAAAAAAAAgQAAAAAAAAACAAAAAHgAQCCAACDzhgAYBAALAAxAoQQEwNIQAAAEAAAABAIG4AACBUAoAyAAUQAAHEQKBAACwEAIAAAAAAAAAAAAAAAAAAAAAAAAAAAAAAA==

>  <PUBCHEM_IUPAC_OPENEYE_NAME>  (1) 
[[3-(2-amino-4-oxo-4a,7,8,8a-tetrahydro-3H-pteridin-6-yl)-2,3-dihydroxy-propoxy]-hydroxy-phosphoryl] phosphono hydrogen phosphate

>  <PUBCHEM_IUPAC_CAS_NAME>  (1) 
[[3-(2-amino-4-oxo-4a,7,8,8a-tetrahydro-3H-pteridin-6-yl)-2,3-dihydroxypropoxy]-hydroxyphosphoryl] phosphono hydrogen phosphate

>  <PUBCHEM_IUPAC_NAME_MARKUP>  (1) 
[[3-(2-amino-4-oxo-4<I>a</I>,7,8,8<I>a</I>-tetrahydro-3<I>H</I>-pteridin-6-yl)-2,3-dihydroxypropoxy]-hydroxyphosphoryl] phosphono hydrogen phosphate

>  <PUBCHEM_IUPAC_NAME>  (1) 
[[3-(2-amino-4-oxo-4a,7,8,8a-tetrahydro-3H-pteridin-6-yl)-2,3-dihydroxypropoxy]-hydroxyphosphoryl] phosphono hydrogen phosphate

>  <PUBCHEM_IUPAC_SYSTEMATIC_NAME>  (1) 
[[3-(2-azanyl-4-oxidanylidene-4a,7,8,8a-tetrahydro-3H-pteridin-6-yl)-2,3-bis(oxidanyl)propoxy]-oxidanyl-phosphoryl] phosphono hydrogen phosphate

>  <PUBCHEM_IUPAC_TRADITIONAL_NAME>  (1) 
[[3-(2-amino-4-keto-4a,7,8,8a-tetrahydro-3H-pteridin-6-yl)-2,3-dihydroxy-propoxy]-hydroxy-phosphoryl] phosphono hydrogen phosphate

>  <PUBCHEM_IUPAC_INCHI>  (1) 
InChI=1S/C9H18N5O13P3/c10-9-13-7-5(8(17)14-9)12-3(1-11-7)6(16)4(15)2-25-29(21,22)27-30(23,24)26-28(18,19)20/h4-7,11,15-16H,1-2H2,(H,21,22)(H,23,24)(H2,18,19,20)(H3,10,13,14,17)

>  <PUBCHEM_IUPAC_INCHIKEY>  (1) 
NTKATOSHVDZIIF-UHFFFAOYSA-N

>  <PUBCHEM_XLOGP3_AA>  (1) 
-9.6

>  <PUBCHEM_EXACT_MASS>  (1) 
497.011397

>  <PUBCHEM_MOLECULAR_FORMULA>  (1) 
C9H18N5O13P3

>  <PUBCHEM_MOLECULAR_WEIGHT>  (1) 
497.19

>  <PUBCHEM_OPENEYE_CAN_SMILES>  (1) 
C1C(=NC2C(N1)N=C(NC2=O)N)C(C(COP(=O)(O)OP(=O)(O)OP(=O)(O)O)O)O

>  <PUBCHEM_OPENEYE_ISO_SMILES>  (1) 
C1C(=NC2C(N1)N=C(NC2=O)N)C(C(COP(=O)(O)OP(=O)(O)OP(=O)(O)O)O)O

>  <PUBCHEM_CACTVS_TPSA>  (1) 
292

>  <PUBCHEM_MONOISOTOPIC_WEIGHT>  (1) 
497.011397

>  <PUBCHEM_TOTAL_CHARGE>  (1) 
0

>  <PUBCHEM_HEAVY_ATOM_COUNT>  (1) 
30

>  <PUBCHEM_ATOM_DEF_STEREO_COUNT>  (1) 
0

>  <PUBCHEM_ATOM_UDEF_STEREO_COUNT>  (1) 
4

>  <PUBCHEM_BOND_DEF_STEREO_COUNT>  (1) 
0

>  <PUBCHEM_BOND_UDEF_STEREO_COUNT>  (1) 
0

>  <PUBCHEM_ISOTOPIC_ATOM_COUNT>  (1) 
0

>  <PUBCHEM_COMPONENT_COUNT>  (1) 
1

>  <PUBCHEM_CACTVS_TAUTO_COUNT>  (1) 
-1

>  <PUBCHEM_COORDINATE_TYPE>  (1) 
1
5
255

>  <PUBCHEM_BONDANNOTATIONS>  (1) 
22  17  3
23  28  3
25  4  3
27  5  3

$$$$
