162
     RDKit          2D

 14 15  0  0  1  0  0  0  0  0999 V2000
    0.0965   -2.0087    0.0000 S   0  0  0  0  0  0  0  0  0  0  0  0
    2.5508    2.3525    0.0000 O   0  0  0  0  0  0  0  0  0  0  0  0
   -1.3852    2.7642    0.0000 O   0  0  0  0  0  0  0  0  0  0  0  0
   -3.3325    1.0444    0.0000 O   0  0  0  0  0  0  0  0  0  0  0  0
    0.6238    0.3604    0.0000 N   0  0  0  0  0  0  0  0  0  0  0  0
    3.9920   -0.9697    0.0000 N   0  0  0  0  0  0  0  0  0  0  0  0
    1.2208   -1.0157    0.0000 C   0  0  0  0  0  0  0  0  0  0  0  0
   -1.1953   -1.2463    0.0000 C   0  0  0  0  0  0  0  0  0  0  0  0
   -0.8694    0.2179    0.0000 C   0  0  0  0  0  0  0  0  0  0  0  0
    2.5969   -0.4187    0.0000 C   0  0  0  0  0  0  0  0  0  0  0  0
    1.9999    0.9574    0.0000 C   0  0  0  0  0  0  0  0  0  0  0  0
   -1.8185   -2.6107    0.0000 C   0  0  0  0  0  0  0  0  0  0  0  0
   -2.6174   -0.7691    0.0000 C   0  0  0  0  0  0  0  0  0  0  0  0
   -1.8624    1.3422    0.0000 C   0  0  0  0  0  0  0  0  0  0  0  0
  1  7  1  0
  1  8  1  0
  2 11  2  0
  3 14  1  0
  4 14  2  0
  5  7  1  0
  5  9  1  0
  5 11  1  0
  6 10  1  0
  7 10  1  0
  8  9  1  0
  8 12  1  0
  8 13  1  0
  9 14  1  0
 10 11  1  0
M  END
>  <PUBCHEM_COMPOUND_CID>  (1) 
162

>  <PUBCHEM_COMPOUND_CANONICALIZED>  (1) 
1

>  <PUBCHEM_CACTVS_COMPLEXITY>  (1) 
318

>  <PUBCHEM_CACTVS_HBOND_ACCEPTOR>  (1) 
5

>  <PUBCHEM_CACTVS_HBOND_DONOR>  (1) 
2

>  <PUBCHEM_CACTVS_ROTATABLE_BOND>  (1) 
1

>  <PUBCHEM_CACTVS_SUBSKEYS>  (1) 
AAADccBzMABAAAAAAAAAAAAAAABYAWAAAAAAAAAABYAAAAAAAAAAHgQQCAAADCjFwASCCANAAggIAAGQGAAAAABAABAAAIGIAAACQBggACAUQAAEFgCwAAAAAAAIAAAAAAAAAAAAAAAAAAAAAAAAAAAAAA==

>  <PUBCHEM_IUPAC_OPENEYE_NAME>  (1) 
6-amino-3,3-dimethyl-7-oxo-4-thia-1-azabicyclo[3.2.0]heptane-2-carboxylic acid

>  <PUBCHEM_IUPAC_CAS_NAME>  (1) 
6-amino-3,3-dimethyl-7-oxo-4-thia-1-azabicyclo[3.2.0]heptane-2-carboxylic acid

>  <PUBCHEM_IUPAC_NAME_MARKUP>  (1) 
6-amino-3,3-dimethyl-7-oxo-4-thia-1-azabicyclo[3.2.0]heptane-2-carboxylic acid

>  <PUBCHEM_IUPAC_NAME>  (1) 
6-amino-3,3-dimethyl-7-oxo-4-thia-1-azabicyclo[3.2.0]heptane-2-carboxylic acid

>  <PUBCHEM_IUPAC_SYSTEMATIC_NAME>  (1) 
6-azanyl-3,3-dimethyl-7-oxidanylidene-4-thia-1-azabicyclo[3.2.0]heptane-2-carboxylic acid

>  <PUBCHEM_IUPAC_TRADITIONAL_NAME>  (1) 
6-amino-7-keto-3,3-dimethyl-4-thia-1-azabicyclo[3.2.0]heptane-2-carboxylic acid

>  <PUBCHEM_IUPAC_INCHI>  (1) 
InChI=1S/C8H12N2O3S/c1-8(2)4(7(12)13)10-5(11)3(9)6(10)14-8/h3-4,6H,9H2,1-2H3,(H,12,13)

>  <PUBCHEM_IUPAC_INCHIKEY>  (1) 
NGHVIOIJCVXTGV-UHFFFAOYSA-N

>  <PUBCHEM_XLOGP3>  (1) 
-2.1

>  <PUBCHEM_EXACT_MASS>  (1) 
216.056863

>  <PUBCHEM_MOLECULAR_FORMULA>  (1) 
C8H12N2O3S

>  <PUBCHEM_MOLECULAR_WEIGHT>  (1) 
216.26

>  <PUBCHEM_OPENEYE_CAN_SMILES>  (1) 
CC1(C(N2C(S1)C(C2=O)N)C(=O)O)C

>  <PUBCHEM_OPENEYE_ISO_SMILES>  (1) 
CC1(C(N2C(S1)C(C2=O)N)C(=O)O)C

>  <PUBCHEM_CACTVS_TPSA>  (1) 
109

>  <PUBCHEM_MONOISOTOPIC_WEIGHT>  (1) 
216.056863

>  <PUBCHEM_TOTAL_CHARGE>  (1) 
0

>  <PUBCHEM_HEAVY_ATOM_COUNT>  (1) 
14

>  <PUBCHEM_ATOM_DEF_STEREO_COUNT>  (1) 
0

>  <PUBCHEM_ATOM_UDEF_STEREO_COUNT>  (1) 
3

>  <PUBCHEM_BOND_DEF_STEREO_COUNT>  (1) 
0

>  <PUBCHEM_BOND_UDEF_STEREO_COUNT>  (1) 
0

>  <PUBCHEM_ISOTOPIC_ATOM_COUNT>  (1) 
0

>  <PUBCHEM_COMPONENT_COUNT>  (1) 
1

>  <PUBCHEM_CACTVS_TAUTO_COUNT>  (1) 
-1

>  <PUBCHEM_COORDINATE_TYPE>  (1) 
1
5
255

>  <PUBCHEM_BONDANNOTATIONS>  (1) 
7  1  3
10  6  3
9  14  3

$$$$
