168
     RDKit          2D

 27 28  0  0  1  0  0  0  0  0999 V2000
    3.1787   -3.1522    0.0000 P   0  0  0  0  0  0  0  0  0  0  0  0
   -1.5171    1.8677    0.0000 O   0  0  0  0  0  0  0  0  0  0  0  0
    0.7810    0.6559    0.0000 O   0  0  0  0  0  0  0  0  0  0  0  0
   -4.4154   -0.8434    0.0000 O   0  0  0  0  0  0  0  0  0  0  0  0
   -0.1178    4.5214    0.0000 O   0  0  0  0  0  0  0  0  0  0  0  0
    0.0813   -0.6710    0.0000 O   0  0  0  0  0  0  0  0  0  0  0  0
    2.8800    4.6363    0.0000 O   0  0  0  0  0  0  0  0  0  0  0  0
    4.4785    2.0977    0.0000 O   0  0  0  0  0  0  0  0  0  0  0  0
   -1.3180   -3.3246    0.0000 O   0  0  0  0  0  0  0  0  0  0  0  0
   -4.3158   -3.4396    0.0000 O   0  0  0  0  0  0  0  0  0  0  0  0
    2.3795   -1.8828    0.0000 O   0  0  0  0  0  0  0  0  0  0  0  0
   -6.0138    1.6953    0.0000 O   0  0  0  0  0  0  0  0  0  0  0  0
    4.4480   -2.3529    0.0000 O   0  0  0  0  0  0  0  0  0  0  0  0
    3.9779   -4.4215    0.0000 O   0  0  0  0  0  0  0  0  0  0  0  0
    1.9093   -3.9514    0.0000 O   0  0  0  0  0  0  0  0  0  0  0  0
   -2.2168    0.5409    0.0000 C   0  0  0  0  0  0  0  0  0  0  0  0
   -0.0182    1.9252    0.0000 C   0  0  0  0  0  0  0  0  0  0  0  0
    0.6814    3.2520    0.0000 C   0  0  0  0  0  0  0  0  0  0  0  0
   -1.4176   -0.7284    0.0000 C   0  0  0  0  0  0  0  0  0  0  0  0
    2.1803    3.3095    0.0000 C   0  0  0  0  0  0  0  0  0  0  0  0
   -3.7157    0.4834    0.0000 C   0  0  0  0  0  0  0  0  0  0  0  0
    2.9796    2.0402    0.0000 C   0  0  0  0  0  0  0  0  0  0  0  0
    2.2799    0.7134    0.0000 C   0  0  0  0  0  0  0  0  0  0  0  0
   -2.1172   -2.0553    0.0000 C   0  0  0  0  0  0  0  0  0  0  0  0
   -3.6161   -2.1127    0.0000 C   0  0  0  0  0  0  0  0  0  0  0  0
   -4.5149    1.7528    0.0000 C   0  0  0  0  0  0  0  0  0  0  0  0
    3.0791   -0.5560    0.0000 C   0  0  0  0  0  0  0  0  0  0  0  0
  1 11  1  0
  1 13  1  0
  1 14  1  0
  1 15  2  0
  2 16  1  0
  2 17  1  0
  3 17  1  0
  3 23  1  0
  4 21  1  0
  4 25  1  0
  5 18  1  0
  6 19  1  0
  7 20  1  0
  8 22  1  0
  9 24  1  0
 10 25  1  0
 11 27  1  0
 12 26  1  0
 16 19  1  0
 16 21  1  0
 17 18  1  0
 18 20  1  0
 19 24  1  0
 20 22  1  0
 21 26  1  0
 22 23  1  0
 23 27  1  0
 24 25  1  0
M  END
>  <PUBCHEM_COMPOUND_CID>  (1) 
168

>  <PUBCHEM_COMPOUND_CANONICALIZED>  (1) 
1

>  <PUBCHEM_CACTVS_COMPLEXITY>  (1) 
528

>  <PUBCHEM_CACTVS_HBOND_ACCEPTOR>  (1) 
14

>  <PUBCHEM_CACTVS_HBOND_DONOR>  (1) 
9

>  <PUBCHEM_CACTVS_ROTATABLE_BOND>  (1) 
6

>  <PUBCHEM_CACTVS_SUBSKEYS>  (1) 
AAADceBwPAIAAAAAAAAAAAAAAAAAAAAAAAAkSAAAAAAAAAAAAAAAGgAACCAACBSwgAMACAAABxAAQAAAAIAAAAAAAAAAAAAAAAAREAIAAAAiQAAFAAAHAAHAYAwAAAAAAAAAAAAAAAAAAAAAAAAAAAAAAA==

>  <PUBCHEM_IUPAC_OPENEYE_NAME>  (1) 
[3,4,5-trihydroxy-6-[4,5,6-trihydroxy-2-(hydroxymethyl)tetrahydropyran-3-yl]oxy-tetrahydropyran-2-yl]methyl dihydrogen phosphate

>  <PUBCHEM_IUPAC_CAS_NAME>  (1) 
[3,4,5-trihydroxy-6-[[4,5,6-trihydroxy-2-(hydroxymethyl)-3-oxanyl]oxy]-2-oxanyl]methyl dihydrogen phosphate

>  <PUBCHEM_IUPAC_NAME_MARKUP>  (1) 
[3,4,5-trihydroxy-6-[4,5,6-trihydroxy-2-(hydroxymethyl)oxan-3-yl]oxyoxan-2-yl]methyl dihydrogen phosphate

>  <PUBCHEM_IUPAC_NAME>  (1) 
[3,4,5-trihydroxy-6-[4,5,6-trihydroxy-2-(hydroxymethyl)oxan-3-yl]oxyoxan-2-yl]methyl dihydrogen phosphate

>  <PUBCHEM_IUPAC_SYSTEMATIC_NAME>  (1) 
[6-[2-(hydroxymethyl)-4,5,6-tris(oxidanyl)oxan-3-yl]oxy-3,4,5-tris(oxidanyl)oxan-2-yl]methyl dihydrogen phosphate

>  <PUBCHEM_IUPAC_TRADITIONAL_NAME>  (1) 
[3,4,5-trihydroxy-6-(4,5,6-trihydroxy-2-methylol-tetrahydropyran-3-yl)oxy-tetrahydropyran-2-yl]methyl dihydrogen phosphate

>  <PUBCHEM_IUPAC_INCHI>  (1) 
InChI=1S/C12H23O14P/c13-1-3-10(7(16)8(17)11(19)24-3)26-12-9(18)6(15)5(14)4(25-12)2-23-27(20,21)22/h3-19H,1-2H2,(H2,20,21,22)

>  <PUBCHEM_IUPAC_INCHIKEY>  (1) 
ITPHOIFCAFNCLL-UHFFFAOYSA-N

>  <PUBCHEM_XLOGP3_AA>  (1) 
-6.4

>  <PUBCHEM_EXACT_MASS>  (1) 
422.082542

>  <PUBCHEM_MOLECULAR_FORMULA>  (1) 
C12H23O14P

>  <PUBCHEM_MOLECULAR_WEIGHT>  (1) 
422.28

>  <PUBCHEM_OPENEYE_CAN_SMILES>  (1) 
C(C1C(C(C(C(O1)O)O)O)OC2C(C(C(C(O2)COP(=O)(O)O)O)O)O)O

>  <PUBCHEM_OPENEYE_ISO_SMILES>  (1) 
C(C1C(C(C(C(O1)O)O)O)OC2C(C(C(C(O2)COP(=O)(O)O)O)O)O)O

>  <PUBCHEM_CACTVS_TPSA>  (1) 
236

>  <PUBCHEM_MONOISOTOPIC_WEIGHT>  (1) 
422.082542

>  <PUBCHEM_TOTAL_CHARGE>  (1) 
0

>  <PUBCHEM_HEAVY_ATOM_COUNT>  (1) 
27

>  <PUBCHEM_ATOM_DEF_STEREO_COUNT>  (1) 
0

>  <PUBCHEM_ATOM_UDEF_STEREO_COUNT>  (1) 
10

>  <PUBCHEM_BOND_DEF_STEREO_COUNT>  (1) 
0

>  <PUBCHEM_BOND_UDEF_STEREO_COUNT>  (1) 
0

>  <PUBCHEM_ISOTOPIC_ATOM_COUNT>  (1) 
0

>  <PUBCHEM_COMPONENT_COUNT>  (1) 
1

>  <PUBCHEM_CACTVS_TAUTO_COUNT>  (1) 
-1

>  <PUBCHEM_COORDINATE_TYPE>  (1) 
1
5
255

>  <PUBCHEM_BONDANNOTATIONS>  (1) 
25  10  3
16  2  3
17  2  3
21  26  3
23  27  3
18  5  3
19  6  3
20  7  3
22  8  3
24  9  3

$$$$
