174
     RDKit          2D

  4  3  0  0  0  0  0  0  0  0999 V2000
    1.9796   -0.1365    0.0000 O   0  0  0  0  0  0  0  0  0  0  0  0
   -1.9796    0.1365    0.0000 O   0  0  0  0  0  0  0  0  0  0  0  0
    0.5994    0.4508    0.0000 C   0  0  0  0  0  0  0  0  0  0  0  0
   -0.5994   -0.4508    0.0000 C   0  0  0  0  0  0  0  0  0  0  0  0
  1  3  1  0
  2  4  1  0
  3  4  1  0
M  END
>  <PUBCHEM_COMPOUND_CID>  (1) 
174

>  <PUBCHEM_COMPOUND_CANONICALIZED>  (1) 
1

>  <PUBCHEM_CACTVS_COMPLEXITY>  (1) 
6

>  <PUBCHEM_CACTVS_HBOND_ACCEPTOR>  (1) 
2

>  <PUBCHEM_CACTVS_HBOND_DONOR>  (1) 
2

>  <PUBCHEM_CACTVS_ROTATABLE_BOND>  (1) 
1

>  <PUBCHEM_CACTVS_SUBSKEYS>  (1) 
AAADcYBAMAAAAAAAAAAAAAAAAAAAAAAAAAAAAAAAAAAAAAAAAAAAGgAACAAAAACggAIAAAAAAgAAAAAAAAAAAAAAAAAAAAAAAAABEAAAAAAAAAAAAAABAAAAAAAAAAAAAAAAAAAAAAAAAAAAAAAAAAAAAA==

>  <PUBCHEM_IUPAC_OPENEYE_NAME>  (1) 
ethylene glycol

>  <PUBCHEM_IUPAC_CAS_NAME>  (1) 
ethane-1,2-diol

>  <PUBCHEM_IUPAC_NAME_MARKUP>  (1) 
ethane-1,2-diol

>  <PUBCHEM_IUPAC_NAME>  (1) 
ethane-1,2-diol

>  <PUBCHEM_IUPAC_SYSTEMATIC_NAME>  (1) 
ethane-1,2-diol

>  <PUBCHEM_IUPAC_TRADITIONAL_NAME>  (1) 
ethylene glycol

>  <PUBCHEM_IUPAC_INCHI>  (1) 
InChI=1S/C2H6O2/c3-1-2-4/h3-4H,1-2H2

>  <PUBCHEM_IUPAC_INCHIKEY>  (1) 
LYCAIKOWRPUZTN-UHFFFAOYSA-N

>  <PUBCHEM_XLOGP3>  (1) 
-1.4

>  <PUBCHEM_EXACT_MASS>  (1) 
62.036779

>  <PUBCHEM_MOLECULAR_FORMULA>  (1) 
C2H6O2

>  <PUBCHEM_MOLECULAR_WEIGHT>  (1) 
62.07

>  <PUBCHEM_OPENEYE_CAN_SMILES>  (1) 
C(CO)O

>  <PUBCHEM_OPENEYE_ISO_SMILES>  (1) 
C(CO)O

>  <PUBCHEM_CACTVS_TPSA>  (1) 
40.5

>  <PUBCHEM_MONOISOTOPIC_WEIGHT>  (1) 
62.036779

>  <PUBCHEM_TOTAL_CHARGE>  (1) 
0

>  <PUBCHEM_HEAVY_ATOM_COUNT>  (1) 
4

>  <PUBCHEM_ATOM_DEF_STEREO_COUNT>  (1) 
0

>  <PUBCHEM_ATOM_UDEF_STEREO_COUNT>  (1) 
0

>  <PUBCHEM_BOND_DEF_STEREO_COUNT>  (1) 
0

>  <PUBCHEM_BOND_UDEF_STEREO_COUNT>  (1) 
0

>  <PUBCHEM_ISOTOPIC_ATOM_COUNT>  (1) 
0

>  <PUBCHEM_COMPONENT_COUNT>  (1) 
1

>  <PUBCHEM_CACTVS_TAUTO_COUNT>  (1) 
-1

>  <PUBCHEM_COORDINATE_TYPE>  (1) 
1
5
255

$$$$
