175
     RDKit          2D

  4  3  0  0  0  0  0  0  0  0999 V2000
    1.2990   -0.7500    0.0000 O   0  0  0  0  0  0  0  0  0  0  0  0
    0.0000    1.5000    0.0000 O   0  0  0  0  0  0  0  0  0  0  0  0
   -1.2990   -0.7500    0.0000 C   0  0  0  0  0  0  0  0  0  0  0  0
    0.0000    0.0000    0.0000 C   0  0  0  0  0  0  0  0  0  0  0  0
  1  4  1  0
  2  4  2  0
  3  4  1  0
M  CHG  1   1  -1
M  END
>  <PUBCHEM_COMPOUND_CID>  (1) 
175

>  <PUBCHEM_COMPOUND_CANONICALIZED>  (1) 
1

>  <PUBCHEM_CACTVS_COMPLEXITY>  (1) 
25.5

>  <PUBCHEM_CACTVS_HBOND_ACCEPTOR>  (1) 
2

>  <PUBCHEM_CACTVS_HBOND_DONOR>  (1) 
0

>  <PUBCHEM_CACTVS_ROTATABLE_BOND>  (1) 
0

>  <PUBCHEM_CACTVS_SUBSKEYS>  (1) 
AAADcQBAMAAAAAAAAAAAAAAAAAAAAAAAAAAAAAAAAAAAAAAAAAAAGgAAAAAAAACAgAACCAAAAAAIAACQCAAAAAAAAAAAAAAAAAAAAAAAAAAAAAAAAAAAAAAAAAAAAAAAAAAAAAAAAAAAAAAAAAAAAAAAAA==

>  <PUBCHEM_IUPAC_OPENEYE_NAME>  (1) 
acetate

>  <PUBCHEM_IUPAC_CAS_NAME>  (1) 
acetate

>  <PUBCHEM_IUPAC_NAME_MARKUP>  (1) 
acetate

>  <PUBCHEM_IUPAC_NAME>  (1) 
acetate

>  <PUBCHEM_IUPAC_SYSTEMATIC_NAME>  (1) 
ethanoate

>  <PUBCHEM_IUPAC_TRADITIONAL_NAME>  (1) 
acetate

>  <PUBCHEM_IUPAC_INCHI>  (1) 
InChI=1S/C2H4O2/c1-2(3)4/h1H3,(H,3,4)/p-1

>  <PUBCHEM_IUPAC_INCHIKEY>  (1) 
QTBSBXVTEAMEQO-UHFFFAOYSA-M

>  <PUBCHEM_XLOGP3_AA>  (1) 
0.4

>  <PUBCHEM_EXACT_MASS>  (1) 
59.013304

>  <PUBCHEM_MOLECULAR_FORMULA>  (1) 
C2H3O2-

>  <PUBCHEM_MOLECULAR_WEIGHT>  (1) 
59.04

>  <PUBCHEM_OPENEYE_CAN_SMILES>  (1) 
CC(=O)[O-]

>  <PUBCHEM_OPENEYE_ISO_SMILES>  (1) 
CC(=O)[O-]

>  <PUBCHEM_CACTVS_TPSA>  (1) 
40.1

>  <PUBCHEM_MONOISOTOPIC_WEIGHT>  (1) 
59.013304

>  <PUBCHEM_TOTAL_CHARGE>  (1) 
-1

>  <PUBCHEM_HEAVY_ATOM_COUNT>  (1) 
4

>  <PUBCHEM_ATOM_DEF_STEREO_COUNT>  (1) 
0

>  <PUBCHEM_ATOM_UDEF_STEREO_COUNT>  (1) 
0

>  <PUBCHEM_BOND_DEF_STEREO_COUNT>  (1) 
0

>  <PUBCHEM_BOND_UDEF_STEREO_COUNT>  (1) 
0

>  <PUBCHEM_ISOTOPIC_ATOM_COUNT>  (1) 
0

>  <PUBCHEM_COMPONENT_COUNT>  (1) 
1

>  <PUBCHEM_CACTVS_TAUTO_COUNT>  (1) 
-1

>  <PUBCHEM_COORDINATE_TYPE>  (1) 
1
5
255

$$$$
