179
     RDKit          2D

  6  5  0  0  1  0  0  0  0  0999 V2000
    1.5000   -1.2990    0.0000 O   0  0  0  0  0  0  0  0  0  0  0  0
   -1.5000    1.2990    0.0000 O   0  0  0  0  0  0  0  0  0  0  0  0
    0.7500    0.0000    0.0000 C   0  0  0  0  0  0  0  0  0  0  0  0
   -0.7500   -0.0000    0.0000 C   0  0  0  0  0  0  0  0  0  0  0  0
    1.5000    1.2990    0.0000 C   0  0  0  0  0  0  0  0  0  0  0  0
   -1.5000   -1.2990    0.0000 C   0  0  0  0  0  0  0  0  0  0  0  0
  1  3  1  0
  2  4  2  0
  3  4  1  0
  3  5  1  0
  4  6  1  0
M  END
>  <PUBCHEM_COMPOUND_CID>  (1) 
179

>  <PUBCHEM_COMPOUND_CANONICALIZED>  (1) 
1

>  <PUBCHEM_CACTVS_COMPLEXITY>  (1) 
58.6

>  <PUBCHEM_CACTVS_HBOND_ACCEPTOR>  (1) 
2

>  <PUBCHEM_CACTVS_HBOND_DONOR>  (1) 
1

>  <PUBCHEM_CACTVS_ROTATABLE_BOND>  (1) 
1

>  <PUBCHEM_CACTVS_SUBSKEYS>  (1) 
AAADccBgMAAAAAAAAAAAAAAAAAAAAAAAAAAAAAAAAAAAAAAAAAAAGgAACAAACBSggAICAAAAAgAIAIAQAAIAAAAAAAAAAAFAAAAAEAAAAAAAQAAAAAAAAAAAAAAAAAAAAAAAAAAAAAAAAAAAAAAAAAAAAA==

>  <PUBCHEM_IUPAC_OPENEYE_NAME>  (1) 
3-hydroxybutan-2-one

>  <PUBCHEM_IUPAC_CAS_NAME>  (1) 
3-hydroxy-2-butanone

>  <PUBCHEM_IUPAC_NAME_MARKUP>  (1) 
3-hydroxybutan-2-one

>  <PUBCHEM_IUPAC_NAME>  (1) 
3-hydroxybutan-2-one

>  <PUBCHEM_IUPAC_SYSTEMATIC_NAME>  (1) 
3-oxidanylbutan-2-one

>  <PUBCHEM_IUPAC_TRADITIONAL_NAME>  (1) 
3-hydroxybutan-2-one

>  <PUBCHEM_IUPAC_INCHI>  (1) 
InChI=1S/C4H8O2/c1-3(5)4(2)6/h3,5H,1-2H3

>  <PUBCHEM_IUPAC_INCHIKEY>  (1) 
ROWKJAVDOGWPAT-UHFFFAOYSA-N

>  <PUBCHEM_XLOGP3_AA>  (1) 
-0.3

>  <PUBCHEM_EXACT_MASS>  (1) 
88.052429

>  <PUBCHEM_MOLECULAR_FORMULA>  (1) 
C4H8O2

>  <PUBCHEM_MOLECULAR_WEIGHT>  (1) 
88.11

>  <PUBCHEM_OPENEYE_CAN_SMILES>  (1) 
CC(C(=O)C)O

>  <PUBCHEM_OPENEYE_ISO_SMILES>  (1) 
CC(C(=O)C)O

>  <PUBCHEM_CACTVS_TPSA>  (1) 
37.3

>  <PUBCHEM_MONOISOTOPIC_WEIGHT>  (1) 
88.052429

>  <PUBCHEM_TOTAL_CHARGE>  (1) 
0

>  <PUBCHEM_HEAVY_ATOM_COUNT>  (1) 
6

>  <PUBCHEM_ATOM_DEF_STEREO_COUNT>  (1) 
0

>  <PUBCHEM_ATOM_UDEF_STEREO_COUNT>  (1) 
1

>  <PUBCHEM_BOND_DEF_STEREO_COUNT>  (1) 
0

>  <PUBCHEM_BOND_UDEF_STEREO_COUNT>  (1) 
0

>  <PUBCHEM_ISOTOPIC_ATOM_COUNT>  (1) 
0

>  <PUBCHEM_COMPONENT_COUNT>  (1) 
1

>  <PUBCHEM_CACTVS_TAUTO_COUNT>  (1) 
-1

>  <PUBCHEM_COORDINATE_TYPE>  (1) 
1
5
255

>  <PUBCHEM_BONDANNOTATIONS>  (1) 
3  1  3

$$$$
