180
     RDKit          2D

  4  3  0  0  0  0  0  0  0  0999 V2000
    0.0000    1.5000    0.0000 O   0  0  0  0  0  0  0  0  0  0  0  0
    0.0000    0.0000    0.0000 C   0  0  0  0  0  0  0  0  0  0  0  0
   -1.2990   -0.7500    0.0000 C   0  0  0  0  0  0  0  0  0  0  0  0
    1.2990   -0.7500    0.0000 C   0  0  0  0  0  0  0  0  0  0  0  0
  1  2  2  0
  2  3  1  0
  2  4  1  0
M  END
>  <PUBCHEM_COMPOUND_CID>  (1) 
180

>  <PUBCHEM_COMPOUND_CANONICALIZED>  (1) 
1

>  <PUBCHEM_CACTVS_COMPLEXITY>  (1) 
26.3

>  <PUBCHEM_CACTVS_HBOND_ACCEPTOR>  (1) 
1

>  <PUBCHEM_CACTVS_HBOND_DONOR>  (1) 
0

>  <PUBCHEM_CACTVS_ROTATABLE_BOND>  (1) 
0

>  <PUBCHEM_CACTVS_SUBSKEYS>  (1) 
AAADcYBAIAAAAAAAAAAAAAAAAAAAAAAAAAAAAAAAAAAAAAAAAAAAGgAAAAAACASAgAACAAAAAAAIAIAQAAAAAAAAAAAAAAAAAAAAAAAAAAAAAAAAAAAAAAAAAAAAAAAAAAAAAAAAAAAAAAAAAAAAAAAAAA==

>  <PUBCHEM_IUPAC_OPENEYE_NAME>  (1) 
acetone

>  <PUBCHEM_IUPAC_CAS_NAME>  (1) 
2-propanone

>  <PUBCHEM_IUPAC_NAME_MARKUP>  (1) 
propan-2-one

>  <PUBCHEM_IUPAC_NAME>  (1) 
propan-2-one

>  <PUBCHEM_IUPAC_SYSTEMATIC_NAME>  (1) 
propan-2-one

>  <PUBCHEM_IUPAC_TRADITIONAL_NAME>  (1) 
acetone

>  <PUBCHEM_IUPAC_INCHI>  (1) 
InChI=1S/C3H6O/c1-3(2)4/h1-2H3

>  <PUBCHEM_IUPAC_INCHIKEY>  (1) 
CSCPPACGZOOCGX-UHFFFAOYSA-N

>  <PUBCHEM_XLOGP3_AA>  (1) 
-0.1

>  <PUBCHEM_EXACT_MASS>  (1) 
58.041865

>  <PUBCHEM_MOLECULAR_FORMULA>  (1) 
C3H6O

>  <PUBCHEM_MOLECULAR_WEIGHT>  (1) 
58.08

>  <PUBCHEM_OPENEYE_CAN_SMILES>  (1) 
CC(=O)C

>  <PUBCHEM_OPENEYE_ISO_SMILES>  (1) 
CC(=O)C

>  <PUBCHEM_CACTVS_TPSA>  (1) 
17.1

>  <PUBCHEM_MONOISOTOPIC_WEIGHT>  (1) 
58.041865

>  <PUBCHEM_TOTAL_CHARGE>  (1) 
0

>  <PUBCHEM_HEAVY_ATOM_COUNT>  (1) 
4

>  <PUBCHEM_ATOM_DEF_STEREO_COUNT>  (1) 
0

>  <PUBCHEM_ATOM_UDEF_STEREO_COUNT>  (1) 
0

>  <PUBCHEM_BOND_DEF_STEREO_COUNT>  (1) 
0

>  <PUBCHEM_BOND_UDEF_STEREO_COUNT>  (1) 
0

>  <PUBCHEM_ISOTOPIC_ATOM_COUNT>  (1) 
0

>  <PUBCHEM_COMPONENT_COUNT>  (1) 
1

>  <PUBCHEM_CACTVS_TAUTO_COUNT>  (1) 
-1

>  <PUBCHEM_COORDINATE_TYPE>  (1) 
1
5
255

$$$$
