181
     RDKit          2D

 51 53  0  0  1  0  0  0  0  0999 V2000
  -15.6329   -0.3861    0.0000 S   0  0  0  0  0  0  0  0  0  0  0  0
    2.8279   -1.7614    0.0000 P   0  0  0  0  0  0  0  0  0  0  0  0
    2.4352    3.2598    0.0000 P   0  0  0  0  0  0  0  0  0  0  0  0
   -0.1612    3.1673    0.0000 P   0  0  0  0  0  0  0  0  0  0  0  0
    6.4862    1.0128    0.0000 O   0  0  0  0  0  0  0  0  0  0  0  0
    4.2701   -2.1738    0.0000 O   0  0  0  0  0  0  0  0  0  0  0  0
    7.4843   -2.7381    0.0000 O   0  0  0  0  0  0  0  0  0  0  0  0
    3.7602    2.5565    0.0000 O   0  0  0  0  0  0  0  0  0  0  0  0
    3.2403   -0.3192    0.0000 O   0  0  0  0  0  0  0  0  0  0  0  0
    1.3857   -1.3489    0.0000 O   0  0  0  0  0  0  0  0  0  0  0  0
    1.1103    3.9630    0.0000 O   0  0  0  0  0  0  0  0  0  0  0  0
   -1.4327    2.3715    0.0000 O   0  0  0  0  0  0  0  0  0  0  0  0
    2.4155   -3.2035    0.0000 O   0  0  0  0  0  0  0  0  0  0  0  0
   -3.8688   -2.2182    0.0000 O   0  0  0  0  0  0  0  0  0  0  0  0
    3.1385    4.5847    0.0000 O   0  0  0  0  0  0  0  0  0  0  0  0
    1.7320    1.9349    0.0000 O   0  0  0  0  0  0  0  0  0  0  0  0
    0.6346    1.8958    0.0000 O   0  0  0  0  0  0  0  0  0  0  0  0
   -5.3006    1.4831    0.0000 O   0  0  0  0  0  0  0  0  0  0  0  0
   -0.9570    4.4388    0.0000 O   0  0  0  0  0  0  0  0  0  0  0  0
  -10.4935    1.2980    0.0000 O   0  0  0  0  0  0  0  0  0  0  0  0
  -16.8510   -2.6809    0.0000 O   0  0  0  0  0  0  0  0  0  0  0  0
    9.0142    0.1443    0.0000 N   0  0  0  0  0  0  0  0  0  0  0  0
   11.1949    1.2099    0.0000 N   0  0  0  0  0  0  0  0  0  0  0  0
    9.9534   -2.4303    0.0000 N   0  0  0  0  0  0  0  0  0  0  0  0
   12.5453   -2.6097    0.0000 N   0  0  0  0  0  0  0  0  0  0  0  0
   13.9966   -0.4548    0.0000 N   0  0  0  0  0  0  0  0  0  0  0  0
   -6.5187   -0.8117    0.0000 N   0  0  0  0  0  0  0  0  0  0  0  0
  -11.7116   -0.9968    0.0000 N   0  0  0  0  0  0  0  0  0  0  0  0
    5.3483   -1.1310    0.0000 C   0  0  0  0  0  0  0  0  0  0  0  0
    6.8257   -1.3904    0.0000 C   0  0  0  0  0  0  0  0  0  0  0  0
    5.1385    0.3542    0.0000 C   0  0  0  0  0  0  0  0  0  0  0  0
    7.5290   -0.0655    0.0000 C   0  0  0  0  0  0  0  0  0  0  0  0
    3.8136    1.0575    0.0000 C   0  0  0  0  0  0  0  0  0  0  0  0
   10.0570   -0.9339    0.0000 C   0  0  0  0  0  0  0  0  0  0  0  0
    9.7175    1.4693    0.0000 C   0  0  0  0  0  0  0  0  0  0  0  0
   11.4047   -0.2754    0.0000 C   0  0  0  0  0  0  0  0  0  0  0  0
   -2.6508    0.0766    0.0000 C   0  0  0  0  0  0  0  0  0  0  0  0
   -3.9223   -0.7192    0.0000 C   0  0  0  0  0  0  0  0  0  0  0  0
   -1.3793    0.8724    0.0000 C   0  0  0  0  0  0  0  0  0  0  0  0
   -3.4466    1.3481    0.0000 C   0  0  0  0  0  0  0  0  0  0  0  0
   -1.8550   -1.1949    0.0000 C   0  0  0  0  0  0  0  0  0  0  0  0
   12.6489   -1.1133    0.0000 C   0  0  0  0  0  0  0  0  0  0  0  0
   -5.2472   -0.0159    0.0000 C   0  0  0  0  0  0  0  0  0  0  0  0
   11.1976   -3.2682    0.0000 C   0  0  0  0  0  0  0  0  0  0  0  0
   -7.8436   -0.1085    0.0000 C   0  0  0  0  0  0  0  0  0  0  0  0
   -9.1151   -0.9043    0.0000 C   0  0  0  0  0  0  0  0  0  0  0  0
  -10.4401   -0.2010    0.0000 C   0  0  0  0  0  0  0  0  0  0  0  0
  -13.0365   -0.2935    0.0000 C   0  0  0  0  0  0  0  0  0  0  0  0
  -14.3080   -1.0893    0.0000 C   0  0  0  0  0  0  0  0  0  0  0  0
  -16.9044   -1.1819    0.0000 C   0  0  0  0  0  0  0  0  0  0  0  0
  -18.2293   -0.4786    0.0000 C   0  0  0  0  0  0  0  0  0  0  0  0
  1 49  1  0
  1 50  1  0
  2  6  1  0
  2  9  1  0
  2 10  1  0
  2 13  2  0
  3  8  1  0
  3 11  1  0
  3 15  1  0
  3 16  2  0
  4 11  1  0
  4 12  1  0
  4 17  1  0
  4 19  2  0
  5 31  1  0
  5 32  1  0
  6 29  1  0
  7 30  1  0
  8 33  1  0
 12 39  1  0
 14 38  1  0
 18 43  2  0
 20 47  2  0
 21 50  2  0
 22 32  1  0
 22 34  1  0
 22 35  1  0
 23 35  2  0
 23 36  1  0
 24 34  1  0
 24 44  2  0
 25 42  2  0
 25 44  1  0
 26 42  1  0
 27 43  1  0
 27 45  1  0
 28 47  1  0
 28 48  1  0
 29 30  1  0
 29 31  1  0
 30 32  1  0
 31 33  1  0
 34 36  2  0
 36 42  1  0
 37 38  1  0
 37 39  1  0
 37 40  1  0
 37 41  1  0
 38 43  1  0
 45 46  1  0
 46 47  1  0
 48 49  1  0
 50 51  1  0
M  END
>  <PUBCHEM_COMPOUND_CID>  (1) 
181

>  <PUBCHEM_COMPOUND_CANONICALIZED>  (1) 
1

>  <PUBCHEM_CACTVS_COMPLEXITY>  (1) 
1380

>  <PUBCHEM_CACTVS_HBOND_ACCEPTOR>  (1) 
22

>  <PUBCHEM_CACTVS_HBOND_DONOR>  (1) 
9

>  <PUBCHEM_CACTVS_ROTATABLE_BOND>  (1) 
20

>  <PUBCHEM_CACTVS_SUBSKEYS>  (1) 
AAADcfB7vgNAAAAAAAAAAAAAAAAAAWJAAAAsAAAAAAAAAFgB+AAAHgQQCCAADhzl1waH8L/MFxioQQdxdIKAgC0RELABUKFoVBCDWBpAyEAeRAgPFgLzACDyMAIJAAAAAAAAAAAAAAAAAAAAAAAAAAAAAA==

>  <PUBCHEM_IUPAC_OPENEYE_NAME>  (1) 
S-[2-[3-[[4-[[[5-(6-aminopurin-9-yl)-4-hydroxy-3-phosphonooxy-tetrahydrofuran-2-yl]methoxy-hydroxy-phosphoryl]oxy-hydroxy-phosphoryl]oxy-2-hydroxy-3,3-dimethyl-butanoyl]amino]propanoylamino]ethyl] ethanethioate

>  <PUBCHEM_IUPAC_CAS_NAME>  (1) 
ethanethioic acid S-[2-[[3-[[4-[[[5-(6-aminopurin-9-yl)-4-hydroxy-3-phosphonooxy-2-oxolanyl]methoxy-hydroxyphosphoryl]oxy-hydroxyphosphoryl]oxy-2-hydroxy-3,3-dimethyl-1-oxobutyl]amino]-1-oxopropyl]amino]ethyl] ester

>  <PUBCHEM_IUPAC_NAME_MARKUP>  (1) 
<I>S</I>-[2-[3-[[4-[[[5-(6-aminopurin-9-yl)-4-hydroxy-3-phosphonooxyoxolan-2-yl]methoxy-hydroxyphosphoryl]oxy-hydroxyphosphoryl]oxy-2-hydroxy-3,3-dimethylbutanoyl]amino]propanoylamino]ethyl] ethanethioate

>  <PUBCHEM_IUPAC_NAME>  (1) 
S-[2-[3-[[4-[[[5-(6-aminopurin-9-yl)-4-hydroxy-3-phosphonooxyoxolan-2-yl]methoxy-hydroxyphosphoryl]oxy-hydroxyphosphoryl]oxy-2-hydroxy-3,3-dimethylbutanoyl]amino]propanoylamino]ethyl] ethanethioate

>  <PUBCHEM_IUPAC_SYSTEMATIC_NAME>  (1) 
S-[2-[3-[[4-[[[5-(6-aminopurin-9-yl)-4-oxidanyl-3-phosphonooxy-oxolan-2-yl]methoxy-oxidanyl-phosphoryl]oxy-oxidanyl-phosphoryl]oxy-3,3-dimethyl-2-oxidanyl-butanoyl]amino]propanoylamino]ethyl] ethanethioate

>  <PUBCHEM_IUPAC_TRADITIONAL_NAME>  (1) 
ethanethioic acid S-[2-[3-[[4-[[(5-adenin-9-yl-4-hydroxy-3-phosphonooxy-tetrahydrofuran-2-yl)methoxy-hydroxy-phosphoryl]oxy-hydroxy-phosphoryl]oxy-2-hydroxy-3,3-dimethyl-butanoyl]amino]propanoylamino]ethyl] ester

>  <PUBCHEM_IUPAC_INCHI>  (1) 
InChI=1S/C23H38N7O17P3S/c1-12(31)51-7-6-25-14(32)4-5-26-21(35)18(34)23(2,3)9-44-50(41,42)47-49(39,40)43-8-13-17(46-48(36,37)38)16(33)22(45-13)30-11-29-15-19(24)27-10-28-20(15)30/h10-11,13,16-18,22,33-34H,4-9H2,1-3H3,(H,25,32)(H,26,35)(H,39,40)(H,41,42)(H2,24,27,28)(H2,36,37,38)

>  <PUBCHEM_IUPAC_INCHIKEY>  (1) 
ZSLZBFCDCINBPY-UHFFFAOYSA-N

>  <PUBCHEM_XLOGP3>  (1) 
-5.6

>  <PUBCHEM_EXACT_MASS>  (1) 
809.125775

>  <PUBCHEM_MOLECULAR_FORMULA>  (1) 
C23H38N7O17P3S

>  <PUBCHEM_MOLECULAR_WEIGHT>  (1) 
809.6

>  <PUBCHEM_OPENEYE_CAN_SMILES>  (1) 
CC(=O)SCCNC(=O)CCNC(=O)C(C(C)(C)COP(=O)(O)OP(=O)(O)OCC1C(C(C(O1)N2C=NC3=C(N=CN=C32)N)O)OP(=O)(O)O)O

>  <PUBCHEM_OPENEYE_ISO_SMILES>  (1) 
CC(=O)SCCNC(=O)CCNC(=O)C(C(C)(C)COP(=O)(O)OP(=O)(O)OCC1C(C(C(O1)N2C=NC3=C(N=CN=C32)N)O)OP(=O)(O)O)O

>  <PUBCHEM_CACTVS_TPSA>  (1) 
389

>  <PUBCHEM_MONOISOTOPIC_WEIGHT>  (1) 
809.125775

>  <PUBCHEM_TOTAL_CHARGE>  (1) 
0

>  <PUBCHEM_HEAVY_ATOM_COUNT>  (1) 
51

>  <PUBCHEM_ATOM_DEF_STEREO_COUNT>  (1) 
0

>  <PUBCHEM_ATOM_UDEF_STEREO_COUNT>  (1) 
5

>  <PUBCHEM_BOND_DEF_STEREO_COUNT>  (1) 
0

>  <PUBCHEM_BOND_UDEF_STEREO_COUNT>  (1) 
0

>  <PUBCHEM_ISOTOPIC_ATOM_COUNT>  (1) 
0

>  <PUBCHEM_COMPONENT_COUNT>  (1) 
1

>  <PUBCHEM_CACTVS_TAUTO_COUNT>  (1) 
-1

>  <PUBCHEM_COORDINATE_TYPE>  (1) 
1
5
255

>  <PUBCHEM_BONDANNOTATIONS>  (1) 
38  14  3
32  22  3
22  34  8
22  35  8
23  35  8
23  36  8
24  34  8
24  44  8
25  42  8
25  44  8
31  33  3
34  36  8
36  42  8
29  6  3
30  7  3

$$$$
