185
     RDKit          2D

 13 12  0  0  1  0  0  0  0  0999 V2000
   -0.4219   -2.1851    0.0000 O   0  0  0  0  0  0  0  0  0  0  0  0
    2.1357   -1.7284    0.0000 O   0  0  0  0  0  0  0  0  0  0  0  0
   -4.6538   -0.6551    0.0000 O   0  0  0  0  0  0  0  0  0  0  0  0
    3.2827   -0.7618    0.0000 O   0  0  0  0  0  0  0  0  0  0  0  0
   -3.7705    1.7882    0.0000 O   0  0  0  0  0  0  0  0  0  0  0  0
    1.6084    1.2249    0.0000 N   0  0  0  0  0  0  0  0  0  0  0  0
    0.4614    0.2582    0.0000 C   0  0  0  0  0  0  0  0  0  0  0  0
   -0.9492    0.7682    0.0000 C   0  0  0  0  0  0  0  0  0  0  0  0
   -2.0962   -0.1985    0.0000 C   0  0  0  0  0  0  0  0  0  0  0  0
    0.7251   -1.2184    0.0000 C   0  0  0  0  0  0  0  0  0  0  0  0
    3.0191    0.7149    0.0000 C   0  0  0  0  0  0  0  0  0  0  0  0
   -3.5068    0.3115    0.0000 C   0  0  0  0  0  0  0  0  0  0  0  0
    4.1660    1.6815    0.0000 C   0  0  0  0  0  0  0  0  0  0  0  0
  1 10  1  0
  2 10  2  0
  3 12  1  0
  4 11  2  0
  5 12  2  0
  6  7  1  0
  6 11  1  0
  7  8  1  0
  7 10  1  0
  8  9  1  0
  9 12  1  0
 11 13  1  0
M  END
>  <PUBCHEM_COMPOUND_CID>  (1) 
185

>  <PUBCHEM_COMPOUND_CANONICALIZED>  (1) 
1

>  <PUBCHEM_CACTVS_COMPLEXITY>  (1) 
225

>  <PUBCHEM_CACTVS_HBOND_ACCEPTOR>  (1) 
5

>  <PUBCHEM_CACTVS_HBOND_DONOR>  (1) 
3

>  <PUBCHEM_CACTVS_ROTATABLE_BOND>  (1) 
5

>  <PUBCHEM_CACTVS_SUBSKEYS>  (1) 
AAADccBiOAAAAAAAAAAAAAAAAAAAAAAAAAAAAAAAAAAAAAAAAAAAHgAQCAAACCjBgAQCCALAAgAIAAGQGAAAAAAAAAAAAIGIAAACABIAgCAEQAAEFgCQAACsJgAAAAAAAAAAAAAAAAAAAAAAAAAAAAAAAA==

>  <PUBCHEM_IUPAC_OPENEYE_NAME>  (1) 
2-acetamidopentanedioic acid

>  <PUBCHEM_IUPAC_CAS_NAME>  (1) 
2-acetamidopentanedioic acid

>  <PUBCHEM_IUPAC_NAME_MARKUP>  (1) 
2-acetamidopentanedioic acid

>  <PUBCHEM_IUPAC_NAME>  (1) 
2-acetamidopentanedioic acid

>  <PUBCHEM_IUPAC_SYSTEMATIC_NAME>  (1) 
2-acetamidopentanedioic acid

>  <PUBCHEM_IUPAC_TRADITIONAL_NAME>  (1) 
2-acetamidoglutaric acid

>  <PUBCHEM_IUPAC_INCHI>  (1) 
InChI=1S/C7H11NO5/c1-4(9)8-5(7(12)13)2-3-6(10)11/h5H,2-3H2,1H3,(H,8,9)(H,10,11)(H,12,13)

>  <PUBCHEM_IUPAC_INCHIKEY>  (1) 
RFMMMVDNIPUKGG-UHFFFAOYSA-N

>  <PUBCHEM_XLOGP3>  (1) 
-1.8

>  <PUBCHEM_EXACT_MASS>  (1) 
189.063722

>  <PUBCHEM_MOLECULAR_FORMULA>  (1) 
C7H11NO5

>  <PUBCHEM_MOLECULAR_WEIGHT>  (1) 
189.17

>  <PUBCHEM_OPENEYE_CAN_SMILES>  (1) 
CC(=O)NC(CCC(=O)O)C(=O)O

>  <PUBCHEM_OPENEYE_ISO_SMILES>  (1) 
CC(=O)NC(CCC(=O)O)C(=O)O

>  <PUBCHEM_CACTVS_TPSA>  (1) 
104

>  <PUBCHEM_MONOISOTOPIC_WEIGHT>  (1) 
189.063722

>  <PUBCHEM_TOTAL_CHARGE>  (1) 
0

>  <PUBCHEM_HEAVY_ATOM_COUNT>  (1) 
13

>  <PUBCHEM_ATOM_DEF_STEREO_COUNT>  (1) 
0

>  <PUBCHEM_ATOM_UDEF_STEREO_COUNT>  (1) 
1

>  <PUBCHEM_BOND_DEF_STEREO_COUNT>  (1) 
0

>  <PUBCHEM_BOND_UDEF_STEREO_COUNT>  (1) 
0

>  <PUBCHEM_ISOTOPIC_ATOM_COUNT>  (1) 
0

>  <PUBCHEM_COMPONENT_COUNT>  (1) 
1

>  <PUBCHEM_CACTVS_TAUTO_COUNT>  (1) 
-1

>  <PUBCHEM_COORDINATE_TYPE>  (1) 
1
5
255

>  <PUBCHEM_BONDANNOTATIONS>  (1) 
7  8  3

$$$$
