190
     RDKit          2D

 10 11  0  0  0  0  0  0  0  0999 V2000
   -1.4947   -1.3828    0.0000 N   0  0  0  0  0  0  0  0  0  0  0  0
   -2.1684    0.9489    0.0000 N   0  0  0  0  0  0  0  0  0  0  0  0
    0.3706    1.9807    0.0000 N   0  0  0  0  0  0  0  0  0  0  0  0
    2.2432    0.1798    0.0000 N   0  0  0  0  0  0  0  0  0  0  0  0
    1.6198   -2.3424    0.0000 N   0  0  0  0  0  0  0  0  0  0  0  0
   -0.2528   -0.5415    0.0000 C   0  0  0  0  0  0  0  0  0  0  0  0
   -0.6692    0.8996    0.0000 C   0  0  0  0  0  0  0  0  0  0  0  0
    1.2034   -0.9014    0.0000 C   0  0  0  0  0  0  0  0  0  0  0  0
   -2.6786   -0.4617    0.0000 C   0  0  0  0  0  0  0  0  0  0  0  0
    1.8268    1.6208    0.0000 C   0  0  0  0  0  0  0  0  0  0  0  0
  1  6  1  0
  1  9  1  0
  2  7  1  0
  2  9  2  0
  3  7  1  0
  3 10  2  0
  4  8  2  0
  4 10  1  0
  5  8  1  0
  6  7  2  0
  6  8  1  0
M  END
>  <PUBCHEM_COMPOUND_CID>  (1) 
190

>  <PUBCHEM_COMPOUND_CANONICALIZED>  (1) 
1

>  <PUBCHEM_CACTVS_COMPLEXITY>  (1) 
127

>  <PUBCHEM_CACTVS_HBOND_ACCEPTOR>  (1) 
4

>  <PUBCHEM_CACTVS_HBOND_DONOR>  (1) 
2

>  <PUBCHEM_CACTVS_ROTATABLE_BOND>  (1) 
0

>  <PUBCHEM_CACTVS_SUBSKEYS>  (1) 
AAADcYBjgAAAAAAAAAAAAAAAAAAAAWAAAAAsAAAAAAAAAFgB+AAAHAAQAAAACAgBFwQF8L7JkACgAQZhZACAgC2REKABUaAoVBCASABASEAUBAgIAAJAACAAAAAAAAAAAAAAAAAAAAAAAAAAAAAAAAAAAA==

>  <PUBCHEM_IUPAC_OPENEYE_NAME>  (1) 
7H-purin-6-amine

>  <PUBCHEM_IUPAC_CAS_NAME>  (1) 
7H-purin-6-amine

>  <PUBCHEM_IUPAC_NAME_MARKUP>  (1) 
7<I>H</I>-purin-6-amine

>  <PUBCHEM_IUPAC_NAME>  (1) 
7H-purin-6-amine

>  <PUBCHEM_IUPAC_SYSTEMATIC_NAME>  (1) 
7H-purin-6-amine

>  <PUBCHEM_IUPAC_TRADITIONAL_NAME>  (1) 
7H-adenine

>  <PUBCHEM_IUPAC_INCHI>  (1) 
InChI=1S/C5H5N5/c6-4-3-5(9-1-7-3)10-2-8-4/h1-2H,(H3,6,7,8,9,10)

>  <PUBCHEM_IUPAC_INCHIKEY>  (1) 
GFFGJBXGBJISGV-UHFFFAOYSA-N

>  <PUBCHEM_XLOGP3>  (1) 
-0.1

>  <PUBCHEM_EXACT_MASS>  (1) 
135.054495

>  <PUBCHEM_MOLECULAR_FORMULA>  (1) 
C5H5N5

>  <PUBCHEM_MOLECULAR_WEIGHT>  (1) 
135.13

>  <PUBCHEM_OPENEYE_CAN_SMILES>  (1) 
C1=NC2=NC=NC(=C2N1)N

>  <PUBCHEM_OPENEYE_ISO_SMILES>  (1) 
C1=NC2=NC=NC(=C2N1)N

>  <PUBCHEM_CACTVS_TPSA>  (1) 
80.5

>  <PUBCHEM_MONOISOTOPIC_WEIGHT>  (1) 
135.054495

>  <PUBCHEM_TOTAL_CHARGE>  (1) 
0

>  <PUBCHEM_HEAVY_ATOM_COUNT>  (1) 
10

>  <PUBCHEM_ATOM_DEF_STEREO_COUNT>  (1) 
0

>  <PUBCHEM_ATOM_UDEF_STEREO_COUNT>  (1) 
0

>  <PUBCHEM_BOND_DEF_STEREO_COUNT>  (1) 
0

>  <PUBCHEM_BOND_UDEF_STEREO_COUNT>  (1) 
0

>  <PUBCHEM_ISOTOPIC_ATOM_COUNT>  (1) 
0

>  <PUBCHEM_COMPONENT_COUNT>  (1) 
1

>  <PUBCHEM_CACTVS_TAUTO_COUNT>  (1) 
-1

>  <PUBCHEM_COORDINATE_TYPE>  (1) 
1
5
255

>  <PUBCHEM_BONDANNOTATIONS>  (1) 
1  6  8
1  9  8
2  7  8
2  9  8
3  10  8
3  7  8
4  10  8
4  8  8
6  7  8
6  8  8

$$$$
