192
     RDKit          2D

 36 39  0  0  1  0  0  0  0  0999 V2000
   -1.5742    2.7949    0.0000 P   0  0  0  0  0  0  0  0  0  0  0  0
   -4.1455    2.4231    0.0000 P   0  0  0  0  0  0  0  0  0  0  0  0
    2.6954    0.9975    0.0000 O   0  0  0  0  0  0  0  0  0  0  0  0
    0.8355   -2.4093    0.0000 O   0  0  0  0  0  0  0  0  0  0  0  0
    4.0918   -2.6240    0.0000 O   0  0  0  0  0  0  0  0  0  0  0  0
   -6.2293   -2.4167    0.0000 O   0  0  0  0  0  0  0  0  0  0  0  0
   -0.1812    2.2385    0.0000 O   0  0  0  0  0  0  0  0  0  0  0  0
   -8.2497    0.8974    0.0000 O   0  0  0  0  0  0  0  0  0  0  0  0
  -10.0638   -1.8152    0.0000 O   0  0  0  0  0  0  0  0  0  0  0  0
   -5.3239    1.4949    0.0000 O   0  0  0  0  0  0  0  0  0  0  0  0
   -8.0445   -4.3788    0.0000 O   0  0  0  0  0  0  0  0  0  0  0  0
   -2.9672    3.3513    0.0000 O   0  0  0  0  0  0  0  0  0  0  0  0
   -1.0178    4.1879    0.0000 O   0  0  0  0  0  0  0  0  0  0  0  0
   -2.1306    1.4019    0.0000 O   0  0  0  0  0  0  0  0  0  0  0  0
   -3.2173    1.2448    0.0000 O   0  0  0  0  0  0  0  0  0  0  0  0
   -5.0737    3.6014    0.0000 O   0  0  0  0  0  0  0  0  0  0  0  0
    5.3022    0.4065    0.0000 N   0  0  0  0  0  0  0  0  0  0  0  0
    7.3554    1.7008    0.0000 N   0  0  0  0  0  0  0  0  0  0  0  0
    6.5134   -2.0520    0.0000 N   0  0  0  0  0  0  0  0  0  0  0  0
    9.1095   -1.9510    0.0000 N   0  0  0  0  0  0  0  0  0  0  0  0
   10.3201    0.3478    0.0000 N   0  0  0  0  0  0  0  0  0  0  0  0
    1.7951   -1.2564    0.0000 C   0  0  0  0  0  0  0  0  0  0  0  0
    3.2919   -1.3551    0.0000 C   0  0  0  0  0  0  0  0  0  0  0  0
    1.4265    0.1976    0.0000 C   0  0  0  0  0  0  0  0  0  0  0  0
    3.8482    0.0379    0.0000 C   0  0  0  0  0  0  0  0  0  0  0  0
    0.0335    0.7539    0.0000 C   0  0  0  0  0  0  0  0  0  0  0  0
   -7.7311   -0.5101    0.0000 C   0  0  0  0  0  0  0  0  0  0  0  0
   -6.2876   -0.9178    0.0000 C   0  0  0  0  0  0  0  0  0  0  0  0
   -8.5649   -1.7570    0.0000 C   0  0  0  0  0  0  0  0  0  0  0  0
   -7.6368   -2.9353    0.0000 C   0  0  0  0  0  0  0  0  0  0  0  0
   -5.1092    0.0104    0.0000 C   0  0  0  0  0  0  0  0  0  0  0  0
    6.4551   -0.5531    0.0000 C   0  0  0  0  0  0  0  0  0  0  0  0
    5.8586    1.7995    0.0000 C   0  0  0  0  0  0  0  0  0  0  0  0
    7.7240    0.2468    0.0000 C   0  0  0  0  0  0  0  0  0  0  0  0
    9.0512   -0.4521    0.0000 C   0  0  0  0  0  0  0  0  0  0  0  0
    7.8406   -2.7509    0.0000 C   0  0  0  0  0  0  0  0  0  0  0  0
  1  7  1  0
  1 12  1  0
  1 13  1  0
  1 14  2  0
  2 10  1  0
  2 12  1  0
  2 15  1  0
  2 16  2  0
  3 24  1  0
  3 25  1  0
  4 22  1  0
  5 23  1  0
  6 28  1  0
  6 30  1  0
  7 26  1  0
  8 27  1  0
  9 29  1  0
 10 31  1  0
 11 30  1  0
 17 25  1  0
 17 32  1  0
 17 33  1  0
 18 33  2  0
 18 34  1  0
 19 32  1  0
 19 36  2  0
 20 35  2  0
 20 36  1  0
 21 35  1  0
 22 23  1  0
 22 24  1  0
 23 25  1  0
 24 26  1  0
 27 28  1  0
 27 29  1  0
 28 31  1  0
 29 30  1  0
 32 34  2  0
 34 35  1  0
M  END
>  <PUBCHEM_COMPOUND_CID>  (1) 
192

>  <PUBCHEM_COMPOUND_CANONICALIZED>  (1) 
1

>  <PUBCHEM_CACTVS_COMPLEXITY>  (1) 
877

>  <PUBCHEM_CACTVS_HBOND_ACCEPTOR>  (1) 
18

>  <PUBCHEM_CACTVS_HBOND_DONOR>  (1) 
8

>  <PUBCHEM_CACTVS_ROTATABLE_BOND>  (1) 
9

>  <PUBCHEM_CACTVS_SUBSKEYS>  (1) 
AAADceBzvAMAAAAAAAAAAAAAAAAAAWJEgAAsAAAAAAAAAFgB+AAAHgAQCCAACBzxlwcF+L9MFxCgQQZhZICAgC0REKABUCAoVBCTWAJAyEAeRAgPAALXACDwMAIAAAAAAAAAAAAAAAAAAAAAAAAAAAAAAA==

>  <PUBCHEM_IUPAC_OPENEYE_NAME>  (1) 
[[5-(6-aminopurin-9-yl)-3,4-dihydroxy-tetrahydrofuran-2-yl]methoxy-hydroxy-phosphoryl] (3,4,5-trihydroxytetrahydrofuran-2-yl)methyl hydrogen phosphate

>  <PUBCHEM_IUPAC_CAS_NAME>  (1) 
[[5-(6-aminopurin-9-yl)-3,4-dihydroxy-2-oxolanyl]methoxy-hydroxyphosphoryl] (3,4,5-trihydroxy-2-oxolanyl)methyl hydrogen phosphate

>  <PUBCHEM_IUPAC_NAME_MARKUP>  (1) 
[[5-(6-aminopurin-9-yl)-3,4-dihydroxyoxolan-2-yl]methoxy-hydroxyphosphoryl] (3,4,5-trihydroxyoxolan-2-yl)methyl hydrogen phosphate

>  <PUBCHEM_IUPAC_NAME>  (1) 
[[5-(6-aminopurin-9-yl)-3,4-dihydroxyoxolan-2-yl]methoxy-hydroxyphosphoryl] (3,4,5-trihydroxyoxolan-2-yl)methyl hydrogen phosphate

>  <PUBCHEM_IUPAC_SYSTEMATIC_NAME>  (1) 
[[5-(6-aminopurin-9-yl)-3,4-bis(oxidanyl)oxolan-2-yl]methoxy-oxidanyl-phosphoryl] [3,4,5-tris(oxidanyl)oxolan-2-yl]methyl hydrogen phosphate

>  <PUBCHEM_IUPAC_TRADITIONAL_NAME>  (1) 
[(5-adenin-9-yl-3,4-dihydroxy-tetrahydrofuran-2-yl)methoxy-hydroxy-phosphoryl] (3,4,5-trihydroxytetrahydrofuran-2-yl)methyl hydrogen phosphate

>  <PUBCHEM_IUPAC_INCHI>  (1) 
InChI=1S/C15H23N5O14P2/c16-12-7-13(18-3-17-12)20(4-19-7)14-10(23)8(21)5(32-14)1-30-35(26,27)34-36(28,29)31-2-6-9(22)11(24)15(25)33-6/h3-6,8-11,14-15,21-25H,1-2H2,(H,26,27)(H,28,29)(H2,16,17,18)

>  <PUBCHEM_IUPAC_INCHIKEY>  (1) 
SRNWOUGRCWSEMX-UHFFFAOYSA-N

>  <PUBCHEM_XLOGP3>  (1) 
-6.1

>  <PUBCHEM_EXACT_MASS>  (1) 
559.071674

>  <PUBCHEM_MOLECULAR_FORMULA>  (1) 
C15H23N5O14P2

>  <PUBCHEM_MOLECULAR_WEIGHT>  (1) 
559.32

>  <PUBCHEM_OPENEYE_CAN_SMILES>  (1) 
C1=NC(=C2C(=N1)N(C=N2)C3C(C(C(O3)COP(=O)(O)OP(=O)(O)OCC4C(C(C(O4)O)O)O)O)O)N

>  <PUBCHEM_OPENEYE_ISO_SMILES>  (1) 
C1=NC(=C2C(=N1)N(C=N2)C3C(C(C(O3)COP(=O)(O)OP(=O)(O)OCC4C(C(C(O4)O)O)O)O)O)N

>  <PUBCHEM_CACTVS_TPSA>  (1) 
292

>  <PUBCHEM_MONOISOTOPIC_WEIGHT>  (1) 
559.071674

>  <PUBCHEM_TOTAL_CHARGE>  (1) 
0

>  <PUBCHEM_HEAVY_ATOM_COUNT>  (1) 
36

>  <PUBCHEM_ATOM_DEF_STEREO_COUNT>  (1) 
0

>  <PUBCHEM_ATOM_UDEF_STEREO_COUNT>  (1) 
8

>  <PUBCHEM_BOND_DEF_STEREO_COUNT>  (1) 
0

>  <PUBCHEM_BOND_UDEF_STEREO_COUNT>  (1) 
0

>  <PUBCHEM_ISOTOPIC_ATOM_COUNT>  (1) 
0

>  <PUBCHEM_COMPONENT_COUNT>  (1) 
1

>  <PUBCHEM_CACTVS_TAUTO_COUNT>  (1) 
-1

>  <PUBCHEM_COORDINATE_TYPE>  (1) 
1
5
255

>  <PUBCHEM_BONDANNOTATIONS>  (1) 
30  11  3
25  17  3
17  32  8
17  33  8
18  33  8
18  34  8
19  32  8
19  36  8
20  35  8
20  36  8
24  26  3
28  31  3
32  34  8
34  35  8
22  4  3
23  5  3
27  8  3
29  9  3

$$$$
