193
     RDKit          2D

 26 28  0  0  1  0  0  0  0  0999 V2000
   -3.1170   -0.4620    0.0000 S   0  0  0  0  0  0  0  0  0  0  0  0
    0.0012   -0.1597    0.0000 O   0  0  0  0  0  0  0  0  0  0  0  0
    0.0176   -4.0411    0.0000 O   0  0  0  0  0  0  0  0  0  0  0  0
    2.9727   -2.6568    0.0000 O   0  0  0  0  0  0  0  0  0  0  0  0
   -9.3922    1.3745    0.0000 O   0  0  0  0  0  0  0  0  0  0  0  0
   -7.3200    2.9417    0.0000 O   0  0  0  0  0  0  0  0  0  0  0  0
    2.5694    0.5815    0.0000 N   0  0  0  0  0  0  0  0  0  0  0  0
    3.7423    2.7063    0.0000 N   0  0  0  0  0  0  0  0  0  0  0  0
    4.8171   -0.9865    0.0000 N   0  0  0  0  0  0  0  0  0  0  0  0
    7.0418    0.3555    0.0000 N   0  0  0  0  0  0  0  0  0  0  0  0
    6.9919    2.9531    0.0000 N   0  0  0  0  0  0  0  0  0  0  0  0
   -7.5825   -1.0182    0.0000 N   0  0  0  0  0  0  0  0  0  0  0  0
    0.3012   -2.5682    0.0000 C   0  0  0  0  0  0  0  0  0  0  0  0
    1.6595   -1.9319    0.0000 C   0  0  0  0  0  0  0  0  0  0  0  0
   -0.7237   -1.4729    0.0000 C   0  0  0  0  0  0  0  0  0  0  0  0
    1.4741   -0.4434    0.0000 C   0  0  0  0  0  0  0  0  0  0  0  0
   -2.2122   -1.6584    0.0000 C   0  0  0  0  0  0  0  0  0  0  0  0
    4.0423    0.2979    0.0000 C   0  0  0  0  0  0  0  0  0  0  0  0
    2.3840    2.0700    0.0000 C   0  0  0  0  0  0  0  0  0  0  0  0
    4.7672    1.6111    0.0000 C   0  0  0  0  0  0  0  0  0  0  0  0
   -4.6055   -0.6474    0.0000 C   0  0  0  0  0  0  0  0  0  0  0  0
   -5.5104    0.5490    0.0000 C   0  0  0  0  0  0  0  0  0  0  0  0
    6.2670    1.6399    0.0000 C   0  0  0  0  0  0  0  0  0  0  0  0
   -6.9989    0.3636    0.0000 C   0  0  0  0  0  0  0  0  0  0  0  0
    6.3168   -0.9577    0.0000 C   0  0  0  0  0  0  0  0  0  0  0  0
   -7.9037    1.5600    0.0000 C   0  0  0  0  0  0  0  0  0  0  0  0
  1 17  1  0
  1 21  1  0
  2 15  1  0
  2 16  1  0
  3 13  1  0
  4 14  1  0
  5 26  1  0
  6 26  2  0
  7 16  1  0
  7 18  1  0
  7 19  1  0
  8 19  2  0
  8 20  1  0
  9 18  1  0
  9 25  2  0
 10 23  2  0
 10 25  1  0
 11 23  1  0
 12 24  1  0
 13 14  1  0
 13 15  1  0
 14 16  1  0
 15 17  1  0
 18 20  2  0
 20 23  1  0
 21 22  1  0
 22 24  1  0
 24 26  1  0
M  END
>  <PUBCHEM_COMPOUND_CID>  (1) 
193

>  <PUBCHEM_COMPOUND_CANONICALIZED>  (1) 
1

>  <PUBCHEM_CACTVS_COMPLEXITY>  (1) 
504

>  <PUBCHEM_CACTVS_HBOND_ACCEPTOR>  (1) 
11

>  <PUBCHEM_CACTVS_HBOND_DONOR>  (1) 
5

>  <PUBCHEM_CACTVS_ROTATABLE_BOND>  (1) 
7

>  <PUBCHEM_CACTVS_SUBSKEYS>  (1) 
AAADceBzuABAAAAAAAAAAAAAAAAAAWJAAAAsAAAAAAAAAFgB+AAAHgQQCAAACDzl1waF+L9MFgioAQbxbACAgC0RELABUKGoVBCDWBJgyEAeRAgPEALzACCwAAAAAAAAAAAAAAAAAAAAAAAAAAAAAAAAAA==

>  <PUBCHEM_IUPAC_OPENEYE_NAME>  (1) 
2-amino-4-[[5-(6-aminopurin-9-yl)-3,4-dihydroxy-tetrahydrofuran-2-yl]methylsulfanyl]butanoic acid

>  <PUBCHEM_IUPAC_CAS_NAME>  (1) 
2-amino-4-[[5-(6-aminopurin-9-yl)-3,4-dihydroxy-2-oxolanyl]methylthio]butanoic acid

>  <PUBCHEM_IUPAC_NAME_MARKUP>  (1) 
2-amino-4-[[5-(6-aminopurin-9-yl)-3,4-dihydroxyoxolan-2-yl]methylsulfanyl]butanoic acid

>  <PUBCHEM_IUPAC_NAME>  (1) 
2-amino-4-[[5-(6-aminopurin-9-yl)-3,4-dihydroxyoxolan-2-yl]methylsulfanyl]butanoic acid

>  <PUBCHEM_IUPAC_SYSTEMATIC_NAME>  (1) 
4-[[5-(6-aminopurin-9-yl)-3,4-bis(oxidanyl)oxolan-2-yl]methylsulfanyl]-2-azanyl-butanoic acid

>  <PUBCHEM_IUPAC_TRADITIONAL_NAME>  (1) 
4-[(5-adenin-9-yl-3,4-dihydroxy-tetrahydrofuran-2-yl)methylthio]-2-amino-butyric acid

>  <PUBCHEM_IUPAC_INCHI>  (1) 
InChI=1S/C14H20N6O5S/c15-6(14(23)24)1-2-26-3-7-9(21)10(22)13(25-7)20-5-19-8-11(16)17-4-18-12(8)20/h4-7,9-10,13,21-22H,1-3,15H2,(H,23,24)(H2,16,17,18)

>  <PUBCHEM_IUPAC_INCHIKEY>  (1) 
ZJUKTBDSGOFHSH-UHFFFAOYSA-N

>  <PUBCHEM_XLOGP3>  (1) 
-3.5

>  <PUBCHEM_EXACT_MASS>  (1) 
384.121589

>  <PUBCHEM_MOLECULAR_FORMULA>  (1) 
C14H20N6O5S

>  <PUBCHEM_MOLECULAR_WEIGHT>  (1) 
384.41

>  <PUBCHEM_OPENEYE_CAN_SMILES>  (1) 
C1=NC(=C2C(=N1)N(C=N2)C3C(C(C(O3)CSCCC(C(=O)O)N)O)O)N

>  <PUBCHEM_OPENEYE_ISO_SMILES>  (1) 
C1=NC(=C2C(=N1)N(C=N2)C3C(C(C(O3)CSCCC(C(=O)O)N)O)O)N

>  <PUBCHEM_CACTVS_TPSA>  (1) 
208

>  <PUBCHEM_MONOISOTOPIC_WEIGHT>  (1) 
384.121589

>  <PUBCHEM_TOTAL_CHARGE>  (1) 
0

>  <PUBCHEM_HEAVY_ATOM_COUNT>  (1) 
26

>  <PUBCHEM_ATOM_DEF_STEREO_COUNT>  (1) 
0

>  <PUBCHEM_ATOM_UDEF_STEREO_COUNT>  (1) 
5

>  <PUBCHEM_BOND_DEF_STEREO_COUNT>  (1) 
0

>  <PUBCHEM_BOND_UDEF_STEREO_COUNT>  (1) 
0

>  <PUBCHEM_ISOTOPIC_ATOM_COUNT>  (1) 
0

>  <PUBCHEM_COMPONENT_COUNT>  (1) 
1

>  <PUBCHEM_CACTVS_TAUTO_COUNT>  (1) 
-1

>  <PUBCHEM_COORDINATE_TYPE>  (1) 
1
5
255

>  <PUBCHEM_BONDANNOTATIONS>  (1) 
10  23  8
10  25  8
24  12  3
15  17  3
18  20  8
20  23  8
13  3  3
14  4  3
16  7  3
7  18  8
7  19  8
8  19  8
8  20  8
9  18  8
9  25  8

$$$$
