2
     RDKit          2D

 14 13  0  0  1  0  0  0  0  0999 V2000
    1.4846   -0.7500    0.0000 O   0  0  0  0  0  0  0  0  0  0  0  0
    1.4846    3.7500    0.0000 O   0  0  0  0  0  0  0  0  0  0  0  0
    2.7837    1.5000    0.0000 O   0  0  0  0  0  0  0  0  0  0  0  0
    0.1856   -3.0000    0.0000 O   0  0  0  0  0  0  0  0  0  0  0  0
   -2.4125   -0.0000    0.0000 N   0  0  0  0  0  0  0  0  0  0  0  0
   -1.1135   -0.7500    0.0000 C   0  0  0  0  0  0  0  0  0  0  0  0
    0.1856    0.0000    0.0000 C   0  0  0  0  0  0  0  0  0  0  0  0
   -1.6625    1.2990    0.0000 C   0  0  0  0  0  0  0  0  0  0  0  0
   -3.1625   -1.2990    0.0000 C   0  0  0  0  0  0  0  0  0  0  0  0
   -3.7115    0.7500    0.0000 C   0  0  0  0  0  0  0  0  0  0  0  0
    0.1856    1.5000    0.0000 C   0  0  0  0  0  0  0  0  0  0  0  0
    1.4846    2.2500    0.0000 C   0  0  0  0  0  0  0  0  0  0  0  0
    1.4846   -2.2500    0.0000 C   0  0  0  0  0  0  0  0  0  0  0  0
    2.7837   -3.0000    0.0000 C   0  0  0  0  0  0  0  0  0  0  0  0
  1  7  1  0
  1 13  1  0
  2 12  1  0
  3 12  2  0
  4 13  2  0
  5  6  1  0
  5  8  1  0
  5  9  1  0
  5 10  1  0
  6  7  1  0
  7 11  1  0
 11 12  1  0
 13 14  1  0
M  CHG  1   5   1
M  END
>  <PUBCHEM_COMPOUND_CID>  (1) 
2

>  <PUBCHEM_COMPOUND_CANONICALIZED>  (1) 
1

>  <PUBCHEM_CACTVS_COMPLEXITY>  (1) 
219

>  <PUBCHEM_CACTVS_HBOND_ACCEPTOR>  (1) 
4

>  <PUBCHEM_CACTVS_HBOND_DONOR>  (1) 
1

>  <PUBCHEM_CACTVS_ROTATABLE_BOND>  (1) 
6

>  <PUBCHEM_CACTVS_SUBSKEYS>  (1) 
AAADceByOAAAAAAAAAAAAAAAAAAAAAAAAAAAAAAAAAAAAAAAAAAAHgAACAAACBThgAYCCAMABgAIAACQCAAAAAAAAAAAAAEIAAACABQAgAAHQAAFIAAQAAAkAAAAAAAAAAAAAAAAAAAAAAAAAAAAAAAAAA==

>  <PUBCHEM_IUPAC_OPENEYE_NAME>  (1) 
(2-acetoxy-3-carboxy-propyl)-trimethyl-ammonium

>  <PUBCHEM_IUPAC_CAS_NAME>  (1) 
(2-acetyloxy-3-carboxypropyl)-trimethylammonium

>  <PUBCHEM_IUPAC_NAME_MARKUP>  (1) 
(2-acetyloxy-3-carboxypropyl)-trimethylazanium

>  <PUBCHEM_IUPAC_NAME>  (1) 
(2-acetyloxy-3-carboxypropyl)-trimethylazanium

>  <PUBCHEM_IUPAC_SYSTEMATIC_NAME>  (1) 
(2-acetyloxy-4-oxidanyl-4-oxidanylidene-butyl)-trimethyl-azanium

>  <PUBCHEM_IUPAC_TRADITIONAL_NAME>  (1) 
(2-acetoxy-3-carboxy-propyl)-trimethyl-ammonium

>  <PUBCHEM_IUPAC_INCHI>  (1) 
InChI=1S/C9H17NO4/c1-7(11)14-8(5-9(12)13)6-10(2,3)4/h8H,5-6H2,1-4H3/p+1

>  <PUBCHEM_IUPAC_INCHIKEY>  (1) 
RDHQFKQIGNGIED-UHFFFAOYSA-O

>  <PUBCHEM_XLOGP3_AA>  (1) 
-0.3

>  <PUBCHEM_EXACT_MASS>  (1) 
204.123583

>  <PUBCHEM_MOLECULAR_FORMULA>  (1) 
C9H18NO4+

>  <PUBCHEM_MOLECULAR_WEIGHT>  (1) 
204.24

>  <PUBCHEM_OPENEYE_CAN_SMILES>  (1) 
CC(=O)OC(CC(=O)O)C[N+](C)(C)C

>  <PUBCHEM_OPENEYE_ISO_SMILES>  (1) 
CC(=O)OC(CC(=O)O)C[N+](C)(C)C

>  <PUBCHEM_CACTVS_TPSA>  (1) 
63.6

>  <PUBCHEM_MONOISOTOPIC_WEIGHT>  (1) 
204.123583

>  <PUBCHEM_TOTAL_CHARGE>  (1) 
1

>  <PUBCHEM_HEAVY_ATOM_COUNT>  (1) 
14

>  <PUBCHEM_ATOM_DEF_STEREO_COUNT>  (1) 
0

>  <PUBCHEM_ATOM_UDEF_STEREO_COUNT>  (1) 
1

>  <PUBCHEM_BOND_DEF_STEREO_COUNT>  (1) 
0

>  <PUBCHEM_BOND_UDEF_STEREO_COUNT>  (1) 
0

>  <PUBCHEM_ISOTOPIC_ATOM_COUNT>  (1) 
0

>  <PUBCHEM_COMPONENT_COUNT>  (1) 
1

>  <PUBCHEM_CACTVS_TAUTO_COUNT>  (1) 
-1

>  <PUBCHEM_COORDINATE_TYPE>  (1) 
1
5
255

>  <PUBCHEM_BONDANNOTATIONS>  (1) 
7  11  3

$$$$
