20
     RDKit          2D

 13 13  0  0  0  0  0  0  0  0999 V2000
    0.1326    1.8269    0.0000 O   0  0  0  0  0  0  0  0  0  0  0  0
    3.1118    2.1791    0.0000 O   0  0  0  0  0  0  0  0  0  0  0  0
   -4.3363    1.2985    0.0000 O   0  0  0  0  0  0  0  0  0  0  0  0
   -4.0312   -1.2816    0.0000 O   0  0  0  0  0  0  0  0  0  0  0  0
   -1.0520   -0.9294    0.0000 C   0  0  0  0  0  0  0  0  0  0  0  0
    0.4376   -0.7532    0.0000 C   0  0  0  0  0  0  0  0  0  0  0  0
   -1.9493    0.2726    0.0000 C   0  0  0  0  0  0  0  0  0  0  0  0
    1.0299    0.6249    0.0000 C   0  0  0  0  0  0  0  0  0  0  0  0
    1.3350   -1.9552    0.0000 C   0  0  0  0  0  0  0  0  0  0  0  0
    2.5195    0.8010    0.0000 C   0  0  0  0  0  0  0  0  0  0  0  0
    2.8246   -1.7791    0.0000 C   0  0  0  0  0  0  0  0  0  0  0  0
    3.4169   -0.4010    0.0000 C   0  0  0  0  0  0  0  0  0  0  0  0
   -3.4390    0.0965    0.0000 C   0  0  0  0  0  0  0  0  0  0  0  0
  1  8  1  0
  2 10  1  0
  3 13  1  0
  4 13  2  0
  5  6  1  0
  5  7  1  0
  6  8  2  0
  6  9  1  0
  7 13  1  0
  8 10  1  0
  9 11  2  0
 10 12  2  0
 11 12  1  0
M  END
>  <PUBCHEM_COMPOUND_CID>  (1) 
20

>  <PUBCHEM_COMPOUND_CANONICALIZED>  (1) 
1

>  <PUBCHEM_CACTVS_COMPLEXITY>  (1) 
181

>  <PUBCHEM_CACTVS_HBOND_ACCEPTOR>  (1) 
4

>  <PUBCHEM_CACTVS_HBOND_DONOR>  (1) 
3

>  <PUBCHEM_CACTVS_ROTATABLE_BOND>  (1) 
3

>  <PUBCHEM_CACTVS_SUBSKEYS>  (1) 
AAADccBwOAAAAAAAAAAAAAAAAAAAAAAAAAAwAAAAAAAAAAABAAAAGgAACAAADASAmAAwDoAAAgCIAiDSCAACAAAgIAAIiAEGiIgJJjKCERKAcAEkwBEJmAeI7LTOAAABAAAIQAAAAAIAABCAAAAAAAAAAA==

>  <PUBCHEM_IUPAC_OPENEYE_NAME>  (1) 
3-(2,3-dihydroxyphenyl)propanoic acid

>  <PUBCHEM_IUPAC_CAS_NAME>  (1) 
3-(2,3-dihydroxyphenyl)propanoic acid

>  <PUBCHEM_IUPAC_NAME_MARKUP>  (1) 
3-(2,3-dihydroxyphenyl)propanoic acid

>  <PUBCHEM_IUPAC_NAME>  (1) 
3-(2,3-dihydroxyphenyl)propanoic acid

>  <PUBCHEM_IUPAC_SYSTEMATIC_NAME>  (1) 
3-[2,3-bis(oxidanyl)phenyl]propanoic acid

>  <PUBCHEM_IUPAC_TRADITIONAL_NAME>  (1) 
3-(2,3-dihydroxyphenyl)propionic acid

>  <PUBCHEM_IUPAC_INCHI>  (1) 
InChI=1S/C9H10O4/c10-7-3-1-2-6(9(7)13)4-5-8(11)12/h1-3,10,13H,4-5H2,(H,11,12)

>  <PUBCHEM_IUPAC_INCHIKEY>  (1) 
QZDSXQJWBGMRLU-UHFFFAOYSA-N

>  <PUBCHEM_XLOGP3_AA>  (1) 
1

>  <PUBCHEM_EXACT_MASS>  (1) 
182.057909

>  <PUBCHEM_MOLECULAR_FORMULA>  (1) 
C9H10O4

>  <PUBCHEM_MOLECULAR_WEIGHT>  (1) 
182.17

>  <PUBCHEM_OPENEYE_CAN_SMILES>  (1) 
C1=CC(=C(C(=C1)O)O)CCC(=O)O

>  <PUBCHEM_OPENEYE_ISO_SMILES>  (1) 
C1=CC(=C(C(=C1)O)O)CCC(=O)O

>  <PUBCHEM_CACTVS_TPSA>  (1) 
77.8

>  <PUBCHEM_MONOISOTOPIC_WEIGHT>  (1) 
182.057909

>  <PUBCHEM_TOTAL_CHARGE>  (1) 
0

>  <PUBCHEM_HEAVY_ATOM_COUNT>  (1) 
13

>  <PUBCHEM_ATOM_DEF_STEREO_COUNT>  (1) 
0

>  <PUBCHEM_ATOM_UDEF_STEREO_COUNT>  (1) 
0

>  <PUBCHEM_BOND_DEF_STEREO_COUNT>  (1) 
0

>  <PUBCHEM_BOND_UDEF_STEREO_COUNT>  (1) 
0

>  <PUBCHEM_ISOTOPIC_ATOM_COUNT>  (1) 
0

>  <PUBCHEM_COMPONENT_COUNT>  (1) 
1

>  <PUBCHEM_CACTVS_TAUTO_COUNT>  (1) 
-1

>  <PUBCHEM_COORDINATE_TYPE>  (1) 
1
5
255

>  <PUBCHEM_BONDANNOTATIONS>  (1) 
10  12  8
11  12  8
6  8  8
6  9  8
8  10  8
9  11  8

$$$$
