200
     RDKit          2D

 22 23  0  0  1  0  0  0  0  0999 V2000
   -4.9267   -1.6789    0.0000 P   0  0  0  0  0  0  0  0  0  0  0  0
   -0.6596    0.1243    0.0000 O   0  0  0  0  0  0  0  0  0  0  0  0
    0.7319    3.7477    0.0000 O   0  0  0  0  0  0  0  0  0  0  0  0
   -2.5241    3.5286    0.0000 O   0  0  0  0  0  0  0  0  0  0  0  0
   -3.5345   -1.1206    0.0000 O   0  0  0  0  0  0  0  0  0  0  0  0
   -5.4850   -0.2866    0.0000 O   0  0  0  0  0  0  0  0  0  0  0  0
   -6.3190   -2.2371    0.0000 O   0  0  0  0  0  0  0  0  0  0  0  0
   -4.3685   -3.0711    0.0000 O   0  0  0  0  0  0  0  0  0  0  0  0
    4.4458   -3.1325    0.0000 O   0  0  0  0  0  0  0  0  0  0  0  0
    1.9465    0.7188    0.0000 N   0  0  0  0  0  0  0  0  0  0  0  0
    4.3680    0.8818    0.0000 N   0  0  0  0  0  0  0  0  0  0  0  0
    1.7065   -1.9434    0.0000 N   0  0  0  0  0  0  0  0  0  0  0  0
    6.4404   -1.4677    0.0000 N   0  0  0  0  0  0  0  0  0  0  0  0
   -0.0663    2.4777    0.0000 C   0  0  0  0  0  0  0  0  0  0  0  0
   -1.5629    2.3770    0.0000 C   0  0  0  0  0  0  0  0  0  0  0  0
    0.4920    1.0855    0.0000 C   0  0  0  0  0  0  0  0  0  0  0  0
   -1.9296    0.9225    0.0000 C   0  0  0  0  0  0  0  0  0  0  0  0
   -3.3218    0.3643    0.0000 C   0  0  0  0  0  0  0  0  0  0  0  0
    2.5047   -0.6734    0.0000 C   0  0  0  0  0  0  0  0  0  0  0  0
    3.0981    1.6800    0.0000 C   0  0  0  0  0  0  0  0  0  0  0  0
    4.0014   -0.5727    0.0000 C   0  0  0  0  0  0  0  0  0  0  0  0
    4.9625   -1.7243    0.0000 C   0  0  0  0  0  0  0  0  0  0  0  0
  1  5  1  0
  1  6  1  0
  1  7  1  0
  1  8  2  0
  2 16  1  0
  2 17  1  0
  3 14  1  0
  4 15  1  0
  5 18  1  0
  9 22  2  0
 10 16  1  0
 10 19  1  0
 10 20  1  0
 11 20  2  0
 11 21  1  0
 12 19  1  0
 13 22  1  0
 14 15  1  0
 14 16  1  0
 15 17  1  0
 17 18  1  0
 19 21  2  0
 21 22  1  0
M  END
>  <PUBCHEM_COMPOUND_CID>  (1) 
200

>  <PUBCHEM_COMPOUND_CANONICALIZED>  (1) 
1

>  <PUBCHEM_CACTVS_COMPLEXITY>  (1) 
475

>  <PUBCHEM_CACTVS_HBOND_ACCEPTOR>  (1) 
10

>  <PUBCHEM_CACTVS_HBOND_DONOR>  (1) 
6

>  <PUBCHEM_CACTVS_ROTATABLE_BOND>  (1) 
5

>  <PUBCHEM_CACTVS_SUBSKEYS>  (1) 
AAADccBzvAIAAAAAAAAAAAAAAAAAAWJAAAAAAAAAAAAAAAABgAAAHgAQCCAACBzhlgYFsBdMFxCoQQdxdICAgC0XEKABUAGoVECDWApAyCAeQIAPAALTAGDwMAIAAAAAAAAAAAAAAAAAAAAAAAAAAAAAAA==

>  <PUBCHEM_IUPAC_OPENEYE_NAME>  (1) 
[5-(5-amino-4-carbamoyl-imidazol-1-yl)-3,4-dihydroxy-tetrahydrofuran-2-yl]methyl dihydrogen phosphate

>  <PUBCHEM_IUPAC_CAS_NAME>  (1) 
[5-(5-amino-4-carbamoyl-1-imidazolyl)-3,4-dihydroxy-2-oxolanyl]methyl dihydrogen phosphate

>  <PUBCHEM_IUPAC_NAME_MARKUP>  (1) 
[5-(5-amino-4-carbamoylimidazol-1-yl)-3,4-dihydroxyoxolan-2-yl]methyl dihydrogen phosphate

>  <PUBCHEM_IUPAC_NAME>  (1) 
[5-(5-amino-4-carbamoylimidazol-1-yl)-3,4-dihydroxyoxolan-2-yl]methyl dihydrogen phosphate

>  <PUBCHEM_IUPAC_SYSTEMATIC_NAME>  (1) 
[5-(4-aminocarbonyl-5-azanyl-imidazol-1-yl)-3,4-bis(oxidanyl)oxolan-2-yl]methyl dihydrogen phosphate

>  <PUBCHEM_IUPAC_TRADITIONAL_NAME>  (1) 
[5-(5-amino-4-carbamoyl-imidazol-1-yl)-3,4-dihydroxy-tetrahydrofuran-2-yl]methyl dihydrogen phosphate

>  <PUBCHEM_IUPAC_INCHI>  (1) 
InChI=1S/C9H15N4O8P/c10-7-4(8(11)16)12-2-13(7)9-6(15)5(14)3(21-9)1-20-22(17,18)19/h2-3,5-6,9,14-15H,1,10H2,(H2,11,16)(H2,17,18,19)

>  <PUBCHEM_IUPAC_INCHIKEY>  (1) 
NOTGFIUVDGNKRI-UHFFFAOYSA-N

>  <PUBCHEM_XLOGP3_AA>  (1) 
-3.8

>  <PUBCHEM_EXACT_MASS>  (1) 
338.06275

>  <PUBCHEM_MOLECULAR_FORMULA>  (1) 
C9H15N4O8P

>  <PUBCHEM_MOLECULAR_WEIGHT>  (1) 
338.21

>  <PUBCHEM_OPENEYE_CAN_SMILES>  (1) 
C1=NC(=C(N1C2C(C(C(O2)COP(=O)(O)O)O)O)N)C(=O)N

>  <PUBCHEM_OPENEYE_ISO_SMILES>  (1) 
C1=NC(=C(N1C2C(C(C(O2)COP(=O)(O)O)O)O)N)C(=O)N

>  <PUBCHEM_CACTVS_TPSA>  (1) 
203

>  <PUBCHEM_MONOISOTOPIC_WEIGHT>  (1) 
338.06275

>  <PUBCHEM_TOTAL_CHARGE>  (1) 
0

>  <PUBCHEM_HEAVY_ATOM_COUNT>  (1) 
22

>  <PUBCHEM_ATOM_DEF_STEREO_COUNT>  (1) 
0

>  <PUBCHEM_ATOM_UDEF_STEREO_COUNT>  (1) 
4

>  <PUBCHEM_BOND_DEF_STEREO_COUNT>  (1) 
0

>  <PUBCHEM_BOND_UDEF_STEREO_COUNT>  (1) 
0

>  <PUBCHEM_ISOTOPIC_ATOM_COUNT>  (1) 
0

>  <PUBCHEM_COMPONENT_COUNT>  (1) 
1

>  <PUBCHEM_CACTVS_TAUTO_COUNT>  (1) 
-1

>  <PUBCHEM_COORDINATE_TYPE>  (1) 
1
5
255

>  <PUBCHEM_BONDANNOTATIONS>  (1) 
16  10  3
10  19  8
10  20  8
11  20  8
11  21  8
17  18  3
19  21  8
14  3  3
15  4  3

$$$$
