201
     RDKit          2D

 44 43  0  0  1  0  0  0  0  0999 V2000
    8.6225   -1.7136    0.0000 P   0  0  0  0  0  0  0  0  0  0  0  0
   10.4710    0.1121    0.0000 P   0  0  0  0  0  0  0  0  0  0  0  0
    7.1713   -2.0929    0.0000 O   0  0  0  0  0  0  0  0  0  0  0  0
   10.0738   -1.3344    0.0000 O   0  0  0  0  0  0  0  0  0  0  0  0
    9.0018   -3.1649    0.0000 O   0  0  0  0  0  0  0  0  0  0  0  0
    8.2433   -0.2624    0.0000 O   0  0  0  0  0  0  0  0  0  0  0  0
    9.0245    0.5093    0.0000 O   0  0  0  0  0  0  0  0  0  0  0  0
   10.8682    1.5586    0.0000 O   0  0  0  0  0  0  0  0  0  0  0  0
   11.9174   -0.2851    0.0000 O   0  0  0  0  0  0  0  0  0  0  0  0
   -6.5470   -2.9926    0.0000 C   0  0  0  0  0  0  0  0  0  0  0  0
   -9.7092    0.2090    0.0000 C   0  0  0  0  0  0  0  0  0  0  0  0
   -7.6011   -1.9254    0.0000 C   0  0  0  0  0  0  0  0  0  0  0  0
   -8.2580    0.5883    0.0000 C   0  0  0  0  0  0  0  0  0  0  0  0
  -10.1064   -1.2374    0.0000 C   0  0  0  0  0  0  0  0  0  0  0  0
   -5.0957   -2.6133    0.0000 C   0  0  0  0  0  0  0  0  0  0  0  0
   -2.5904   -3.3013    0.0000 C   0  0  0  0  0  0  0  0  0  0  0  0
   -5.3554    1.3468    0.0000 C   0  0  0  0  0  0  0  0  0  0  0  0
   -1.5363   -4.3684    0.0000 C   0  0  0  0  0  0  0  0  0  0  0  0
   -6.4095    2.4140    0.0000 C   0  0  0  0  0  0  0  0  0  0  0  0
   -9.0523   -2.3046    0.0000 C   0  0  0  0  0  0  0  0  0  0  0  0
   -3.9042    1.7261    0.0000 C   0  0  0  0  0  0  0  0  0  0  0  0
   -7.8608    2.0347    0.0000 C   0  0  0  0  0  0  0  0  0  0  0  0
   -4.0416   -3.6805    0.0000 C   0  0  0  0  0  0  0  0  0  0  0  0
   -0.0850   -3.9892    0.0000 C   0  0  0  0  0  0  0  0  0  0  0  0
    1.7634   -2.1635    0.0000 C   0  0  0  0  0  0  0  0  0  0  0  0
   -3.5070    3.1725    0.0000 C   0  0  0  0  0  0  0  0  0  0  0  0
   -2.0557    3.5518    0.0000 C   0  0  0  0  0  0  0  0  0  0  0  0
    0.3121   -2.5427    0.0000 C   0  0  0  0  0  0  0  0  0  0  0  0
   -1.0017    2.4846    0.0000 C   0  0  0  0  0  0  0  0  0  0  0  0
  -11.5577   -1.6167    0.0000 C   0  0  0  0  0  0  0  0  0  0  0  0
    2.1606   -0.7170    0.0000 C   0  0  0  0  0  0  0  0  0  0  0  0
   -4.6985   -1.1669    0.0000 C   0  0  0  0  0  0  0  0  0  0  0  0
   -6.0123    3.8605    0.0000 C   0  0  0  0  0  0  0  0  0  0  0  0
    0.4496    2.8639    0.0000 C   0  0  0  0  0  0  0  0  0  0  0  0
    0.9690   -5.0564    0.0000 C   0  0  0  0  0  0  0  0  0  0  0  0
    3.6118   -0.3377    0.0000 C   0  0  0  0  0  0  0  0  0  0  0  0
   -1.6586    4.9983    0.0000 C   0  0  0  0  0  0  0  0  0  0  0  0
    0.8468    4.3103    0.0000 C   0  0  0  0  0  0  0  0  0  0  0  0
    4.0090    1.1087    0.0000 C   0  0  0  0  0  0  0  0  0  0  0  0
    4.6659   -1.4049    0.0000 C   0  0  0  0  0  0  0  0  0  0  0  0
    2.2980    4.6896    0.0000 C   0  0  0  0  0  0  0  0  0  0  0  0
    6.1172   -1.0257    0.0000 C   0  0  0  0  0  0  0  0  0  0  0  0
    2.6952    6.1360    0.0000 C   0  0  0  0  0  0  0  0  0  0  0  0
    3.3521    3.6224    0.0000 C   0  0  0  0  0  0  0  0  0  0  0  0
  1  3  1  0
  1  4  1  0
  1  5  1  0
  1  6  2  0
  2  4  1  0
  2  7  1  0
  2  8  1  0
  2  9  2  0
  3 42  1  0
 10 12  1  0
 10 15  1  0
 11 13  1  0
 11 14  1  0
 12 20  1  0
 13 22  1  0
 14 20  2  3
 14 30  1  0
 15 23  2  3
 15 32  1  0
 16 18  1  0
 16 23  1  0
 17 19  1  0
 17 21  1  0
 18 24  1  0
 19 22  2  3
 19 33  1  0
 21 26  1  0
 24 28  2  3
 24 35  1  0
 25 28  1  0
 25 31  1  0
 26 27  2  3
 27 29  1  0
 27 37  1  0
 29 34  1  0
 31 36  1  0
 34 38  1  0
 36 39  1  0
 36 40  2  3
 38 41  2  3
 40 42  1  0
 41 43  1  0
 41 44  1  0
M  END
>  <PUBCHEM_COMPOUND_CID>  (1) 
201

>  <PUBCHEM_COMPOUND_CANONICALIZED>  (1) 
1

>  <PUBCHEM_CACTVS_COMPLEXITY>  (1) 
1160

>  <PUBCHEM_CACTVS_HBOND_ACCEPTOR>  (1) 
7

>  <PUBCHEM_CACTVS_HBOND_DONOR>  (1) 
3

>  <PUBCHEM_CACTVS_ROTATABLE_BOND>  (1) 
23

>  <PUBCHEM_CACTVS_SUBSKEYS>  (1) 
AAADcfB8OAMAAAAAAAAAAAAAAAAAAAAAAAAAAAAAAAAAAAAAAAAAGgAACCAADACggAICAAAAARCAQiBCAIAAAAAgAAAACAAAAAgABAIAAQAAEAAAgAAIAAIAAAAAAAAAAAAAAAAAAAAAAAAAAAAAAAAAAA==

>  <PUBCHEM_IUPAC_OPENEYE_NAME>  (1) 
3,7,11,15,19,23,27-heptamethyloctacosa-2,6,10,14,18,22,26-heptaenyl phosphono hydrogen phosphate

>  <PUBCHEM_IUPAC_CAS_NAME>  (1) 
3,7,11,15,19,23,27-heptamethyloctacosa-2,6,10,14,18,22,26-heptaenyl phosphono hydrogen phosphate

>  <PUBCHEM_IUPAC_NAME_MARKUP>  (1) 
3,7,11,15,19,23,27-heptamethyloctacosa-2,6,10,14,18,22,26-heptaenyl phosphono hydrogen phosphate

>  <PUBCHEM_IUPAC_NAME>  (1) 
3,7,11,15,19,23,27-heptamethyloctacosa-2,6,10,14,18,22,26-heptaenyl phosphono hydrogen phosphate

>  <PUBCHEM_IUPAC_SYSTEMATIC_NAME>  (1) 
3,7,11,15,19,23,27-heptamethyloctacosa-2,6,10,14,18,22,26-heptaenyl phosphono hydrogen phosphate

>  <PUBCHEM_IUPAC_TRADITIONAL_NAME>  (1) 
3,7,11,15,19,23,27-heptamethyloctacosa-2,6,10,14,18,22,26-heptaenyl phosphono hydrogen phosphate

>  <PUBCHEM_IUPAC_INCHI>  (1) 
InChI=1S/C35H60O7P2/c1-29(2)15-9-16-30(3)17-10-18-31(4)19-11-20-32(5)21-12-22-33(6)23-13-24-34(7)25-14-26-35(8)27-28-41-44(39,40)42-43(36,37)38/h15,17,19,21,23,25,27H,9-14,16,18,20,22,24,26,28H2,1-8H3,(H,39,40)(H2,36,37,38)

>  <PUBCHEM_IUPAC_INCHIKEY>  (1) 
LSJLEXWXRKTZAJ-UHFFFAOYSA-N

>  <PUBCHEM_XLOGP3_AA>  (1) 
10

>  <PUBCHEM_EXACT_MASS>  (1) 
654.381428

>  <PUBCHEM_MOLECULAR_FORMULA>  (1) 
C35H60O7P2

>  <PUBCHEM_MOLECULAR_WEIGHT>  (1) 
654.8

>  <PUBCHEM_OPENEYE_CAN_SMILES>  (1) 
CC(=CCCC(=CCCC(=CCCC(=CCCC(=CCCC(=CCCC(=CCOP(=O)(O)OP(=O)(O)O)C)C)C)C)C)C)C

>  <PUBCHEM_OPENEYE_ISO_SMILES>  (1) 
CC(=CCCC(=CCCC(=CCCC(=CCCC(=CCCC(=CCCC(=CCOP(=O)(O)OP(=O)(O)O)C)C)C)C)C)C)C

>  <PUBCHEM_CACTVS_TPSA>  (1) 
113

>  <PUBCHEM_MONOISOTOPIC_WEIGHT>  (1) 
654.381428

>  <PUBCHEM_TOTAL_CHARGE>  (1) 
0

>  <PUBCHEM_HEAVY_ATOM_COUNT>  (1) 
44

>  <PUBCHEM_ATOM_DEF_STEREO_COUNT>  (1) 
0

>  <PUBCHEM_ATOM_UDEF_STEREO_COUNT>  (1) 
0

>  <PUBCHEM_BOND_DEF_STEREO_COUNT>  (1) 
0

>  <PUBCHEM_BOND_UDEF_STEREO_COUNT>  (1) 
6

>  <PUBCHEM_ISOTOPIC_ATOM_COUNT>  (1) 
0

>  <PUBCHEM_COMPONENT_COUNT>  (1) 
1

>  <PUBCHEM_CACTVS_TAUTO_COUNT>  (1) 
-1

>  <PUBCHEM_COORDINATE_TYPE>  (1) 
1
5
255

>  <PUBCHEM_BONDANNOTATIONS>  (1) 
14  20  1
15  23  1
19  22  1
24  28  1
26  27  1
36  40  1

$$$$
