202
     RDKit          2D

 39 38  0  0  1  0  0  0  0  0999 V2000
    5.9931   -2.8298    0.0000 P   0  0  0  0  0  0  0  0  0  0  0  0
    7.9824   -1.1587    0.0000 P   0  0  0  0  0  0  0  0  0  0  0  0
    4.5161   -3.0911    0.0000 O   0  0  0  0  0  0  0  0  0  0  0  0
    7.4702   -2.5685    0.0000 O   0  0  0  0  0  0  0  0  0  0  0  0
    6.2544   -4.3069    0.0000 O   0  0  0  0  0  0  0  0  0  0  0  0
    5.7318   -1.3527    0.0000 O   0  0  0  0  0  0  0  0  0  0  0  0
    6.5726   -0.6464    0.0000 O   0  0  0  0  0  0  0  0  0  0  0  0
    8.4947    0.2512    0.0000 O   0  0  0  0  0  0  0  0  0  0  0  0
    9.3923   -1.6709    0.0000 O   0  0  0  0  0  0  0  0  0  0  0  0
   -1.7254    6.3585    0.0000 C   0  0  0  0  0  0  0  0  0  0  0  0
   -2.2377    4.9486    0.0000 C   0  0  0  0  0  0  0  0  0  0  0  0
    0.2042    4.0614    0.0000 C   0  0  0  0  0  0  0  0  0  0  0  0
    1.1690    2.9129    0.0000 C   0  0  0  0  0  0  0  0  0  0  0  0
   -3.2622    2.1290    0.0000 C   0  0  0  0  0  0  0  0  0  0  0  0
   -0.2484    6.6198    0.0000 C   0  0  0  0  0  0  0  0  0  0  0  0
   -4.2270    3.2775    0.0000 C   0  0  0  0  0  0  0  0  0  0  0  0
   -3.7744    0.7192    0.0000 C   0  0  0  0  0  0  0  0  0  0  0  0
   -3.7148    4.6873    0.0000 C   0  0  0  0  0  0  0  0  0  0  0  0
    0.7164    5.4712    0.0000 C   0  0  0  0  0  0  0  0  0  0  0  0
    0.6568    1.5030    0.0000 C   0  0  0  0  0  0  0  0  0  0  0  0
   -1.3325   -0.1681    0.0000 C   0  0  0  0  0  0  0  0  0  0  0  0
   -3.3218   -1.8392    0.0000 C   0  0  0  0  0  0  0  0  0  0  0  0
   -2.8096   -0.4294    0.0000 C   0  0  0  0  0  0  0  0  0  0  0  0
   -0.8203    1.2417    0.0000 C   0  0  0  0  0  0  0  0  0  0  0  0
   -4.7989   -2.1005    0.0000 C   0  0  0  0  0  0  0  0  0  0  0  0
   -0.3677   -1.3166    0.0000 C   0  0  0  0  0  0  0  0  0  0  0  0
    0.2639    8.0296    0.0000 C   0  0  0  0  0  0  0  0  0  0  0  0
   -5.7041    3.0162    0.0000 C   0  0  0  0  0  0  0  0  0  0  0  0
   -5.3112   -3.5103    0.0000 C   0  0  0  0  0  0  0  0  0  0  0  0
    1.4569    0.7577    0.0000 C   0  0  0  0  0  0  0  0  0  0  0  0
    1.1094   -1.0553    0.0000 C   0  0  0  0  0  0  0  0  0  0  0  0
   -2.3570   -2.9877    0.0000 C   0  0  0  0  0  0  0  0  0  0  0  0
   -6.7882   -3.7716    0.0000 C   0  0  0  0  0  0  0  0  0  0  0  0
    1.6053   -0.0807    0.0000 C   0  0  0  0  0  0  0  0  0  0  0  0
    2.0742   -2.2038    0.0000 C   0  0  0  0  0  0  0  0  0  0  0  0
   -7.3005   -5.1814    0.0000 C   0  0  0  0  0  0  0  0  0  0  0  0
    3.5512   -1.9425    0.0000 C   0  0  0  0  0  0  0  0  0  0  0  0
   -8.7775   -5.4427    0.0000 C   0  0  0  0  0  0  0  0  0  0  0  0
   -6.3357   -6.3300    0.0000 C   0  0  0  0  0  0  0  0  0  0  0  0
  1  3  1  0
  1  4  1  0
  1  5  1  0
  1  6  2  0
  2  4  1  0
  2  7  1  0
  2  8  1  0
  2  9  2  0
  3 37  1  0
 10 11  1  0
 10 15  1  0
 11 18  1  0
 12 13  1  0
 12 19  1  0
 13 20  1  0
 14 16  1  0
 14 17  1  0
 15 19  2  3
 15 27  1  0
 16 18  2  3
 16 28  1  0
 17 23  1  0
 20 24  2  3
 20 30  1  0
 21 24  1  0
 21 26  1  0
 22 23  2  3
 22 25  1  0
 22 32  1  0
 25 29  1  0
 26 31  1  0
 29 33  1  0
 31 34  1  0
 31 35  2  3
 33 36  2  3
 35 37  1  0
 36 38  1  0
 36 39  1  0
M  END
>  <PUBCHEM_COMPOUND_CID>  (1) 
202

>  <PUBCHEM_COMPOUND_CANONICALIZED>  (1) 
1

>  <PUBCHEM_CACTVS_COMPLEXITY>  (1) 
1010

>  <PUBCHEM_CACTVS_HBOND_ACCEPTOR>  (1) 
7

>  <PUBCHEM_CACTVS_HBOND_DONOR>  (1) 
3

>  <PUBCHEM_CACTVS_ROTATABLE_BOND>  (1) 
20

>  <PUBCHEM_CACTVS_SUBSKEYS>  (1) 
AAADcfB4OAMAAAAAAAAAAAAAAAAAAAAAAAAAAAAAAAAAAAAAAAAAGgAACCAADACggAICAAAAARCAQiBCAIAAAAAgAAAACAAAAAgABAIAAQAAEAAAgAAIAAIAAAAAAAAAAAAAAAAAAAAAAAAAAAAAAAAAAA==

>  <PUBCHEM_IUPAC_OPENEYE_NAME>  (1) 
3,7,11,15,19,23-hexamethyltetracosa-2,6,10,14,18,22-hexaenyl phosphono hydrogen phosphate

>  <PUBCHEM_IUPAC_CAS_NAME>  (1) 
3,7,11,15,19,23-hexamethyltetracosa-2,6,10,14,18,22-hexaenyl phosphono hydrogen phosphate

>  <PUBCHEM_IUPAC_NAME_MARKUP>  (1) 
3,7,11,15,19,23-hexamethyltetracosa-2,6,10,14,18,22-hexaenyl phosphono hydrogen phosphate

>  <PUBCHEM_IUPAC_NAME>  (1) 
3,7,11,15,19,23-hexamethyltetracosa-2,6,10,14,18,22-hexaenyl phosphono hydrogen phosphate

>  <PUBCHEM_IUPAC_SYSTEMATIC_NAME>  (1) 
3,7,11,15,19,23-hexamethyltetracosa-2,6,10,14,18,22-hexaenyl phosphono hydrogen phosphate

>  <PUBCHEM_IUPAC_TRADITIONAL_NAME>  (1) 
3,7,11,15,19,23-hexamethyltetracosa-2,6,10,14,18,22-hexaenyl phosphono hydrogen phosphate

>  <PUBCHEM_IUPAC_INCHI>  (1) 
InChI=1S/C30H52O7P2/c1-25(2)13-8-14-26(3)15-9-16-27(4)17-10-18-28(5)19-11-20-29(6)21-12-22-30(7)23-24-36-39(34,35)37-38(31,32)33/h13,15,17,19,21,23H,8-12,14,16,18,20,22,24H2,1-7H3,(H,34,35)(H2,31,32,33)

>  <PUBCHEM_IUPAC_INCHIKEY>  (1) 
NGFSMHKFTZROKJ-UHFFFAOYSA-N

>  <PUBCHEM_XLOGP3_AA>  (1) 
8.1

>  <PUBCHEM_EXACT_MASS>  (1) 
586.318828

>  <PUBCHEM_MOLECULAR_FORMULA>  (1) 
C30H52O7P2

>  <PUBCHEM_MOLECULAR_WEIGHT>  (1) 
586.7

>  <PUBCHEM_OPENEYE_CAN_SMILES>  (1) 
CC(=CCCC(=CCCC(=CCCC(=CCCC(=CCCC(=CCOP(=O)(O)OP(=O)(O)O)C)C)C)C)C)C

>  <PUBCHEM_OPENEYE_ISO_SMILES>  (1) 
CC(=CCCC(=CCCC(=CCCC(=CCCC(=CCCC(=CCOP(=O)(O)OP(=O)(O)O)C)C)C)C)C)C

>  <PUBCHEM_CACTVS_TPSA>  (1) 
113

>  <PUBCHEM_MONOISOTOPIC_WEIGHT>  (1) 
586.318828

>  <PUBCHEM_TOTAL_CHARGE>  (1) 
0

>  <PUBCHEM_HEAVY_ATOM_COUNT>  (1) 
39

>  <PUBCHEM_ATOM_DEF_STEREO_COUNT>  (1) 
0

>  <PUBCHEM_ATOM_UDEF_STEREO_COUNT>  (1) 
0

>  <PUBCHEM_BOND_DEF_STEREO_COUNT>  (1) 
0

>  <PUBCHEM_BOND_UDEF_STEREO_COUNT>  (1) 
5

>  <PUBCHEM_ISOTOPIC_ATOM_COUNT>  (1) 
0

>  <PUBCHEM_COMPONENT_COUNT>  (1) 
1

>  <PUBCHEM_CACTVS_TAUTO_COUNT>  (1) 
-1

>  <PUBCHEM_COORDINATE_TYPE>  (1) 
1
5
255

>  <PUBCHEM_BONDANNOTATIONS>  (1) 
15  19  1
16  18  1
20  24  1
22  23  1
31  35  1

$$$$
