207
     RDKit          2D

 10  9  0  0  1  0  0  0  0  0999 V2000
   -4.0245    0.4014    0.0000 O   0  0  0  0  0  0  0  0  0  0  0  0
   -2.7402   -1.8571    0.0000 O   0  0  0  0  0  0  0  0  0  0  0  0
    5.0637   -0.4082    0.0000 O   0  0  0  0  0  0  0  0  0  0  0  0
   -1.4166    1.8843    0.0000 N   0  0  0  0  0  0  0  0  0  0  0  0
   -0.1324   -0.3741    0.0000 C   0  0  0  0  0  0  0  0  0  0  0  0
    1.1716    0.3673    0.0000 C   0  0  0  0  0  0  0  0  0  0  0  0
   -1.4265    0.3844    0.0000 C   0  0  0  0  0  0  0  0  0  0  0  0
    2.4657   -0.3912    0.0000 C   0  0  0  0  0  0  0  0  0  0  0  0
   -2.7304   -0.3571    0.0000 C   0  0  0  0  0  0  0  0  0  0  0  0
    3.7696    0.3503    0.0000 C   0  0  0  0  0  0  0  0  0  0  0  0
  1  9  1  0
  2  9  2  0
  3 10  2  0
  4  7  1  0
  5  6  1  0
  5  7  1  0
  6  8  1  0
  7  9  1  0
  8 10  1  0
M  END
>  <PUBCHEM_COMPOUND_CID>  (1) 
207

>  <PUBCHEM_COMPOUND_CANONICALIZED>  (1) 
1

>  <PUBCHEM_CACTVS_COMPLEXITY>  (1) 
124

>  <PUBCHEM_CACTVS_HBOND_ACCEPTOR>  (1) 
4

>  <PUBCHEM_CACTVS_HBOND_DONOR>  (1) 
2

>  <PUBCHEM_CACTVS_ROTATABLE_BOND>  (1) 
5

>  <PUBCHEM_CACTVS_SUBSKEYS>  (1) 
AAADccBiMAAAAAAAAAAAAAAAAAAAAAAAAAAAAAAAAAAAAAAAAAAAHgAQCAAACCjhgAYACABAAgAIAAiQiAAAAAAAAAAAAIGAAAACABIAgAAAQAAEEAAAAAGYSQAQAAAAAAAAAAAAAAAAAAAAAAAAAAAAAA==

>  <PUBCHEM_IUPAC_OPENEYE_NAME>  (1) 
2-amino-6-oxo-hexanoic acid

>  <PUBCHEM_IUPAC_CAS_NAME>  (1) 
2-amino-6-oxohexanoic acid

>  <PUBCHEM_IUPAC_NAME_MARKUP>  (1) 
2-amino-6-oxohexanoic acid

>  <PUBCHEM_IUPAC_NAME>  (1) 
2-amino-6-oxohexanoic acid

>  <PUBCHEM_IUPAC_SYSTEMATIC_NAME>  (1) 
2-azanyl-6-oxidanylidene-hexanoic acid

>  <PUBCHEM_IUPAC_TRADITIONAL_NAME>  (1) 
2-amino-6-keto-hexanoic acid

>  <PUBCHEM_IUPAC_INCHI>  (1) 
InChI=1S/C6H11NO3/c7-5(6(9)10)3-1-2-4-8/h4-5H,1-3,7H2,(H,9,10)

>  <PUBCHEM_IUPAC_INCHIKEY>  (1) 
GFXYTQPNNXGICT-UHFFFAOYSA-N

>  <PUBCHEM_XLOGP3>  (1) 
-3.2

>  <PUBCHEM_EXACT_MASS>  (1) 
145.073893

>  <PUBCHEM_MOLECULAR_FORMULA>  (1) 
C6H11NO3

>  <PUBCHEM_MOLECULAR_WEIGHT>  (1) 
145.16

>  <PUBCHEM_OPENEYE_CAN_SMILES>  (1) 
C(CC=O)CC(C(=O)O)N

>  <PUBCHEM_OPENEYE_ISO_SMILES>  (1) 
C(CC=O)CC(C(=O)O)N

>  <PUBCHEM_CACTVS_TPSA>  (1) 
80.4

>  <PUBCHEM_MONOISOTOPIC_WEIGHT>  (1) 
145.073893

>  <PUBCHEM_TOTAL_CHARGE>  (1) 
0

>  <PUBCHEM_HEAVY_ATOM_COUNT>  (1) 
10

>  <PUBCHEM_ATOM_DEF_STEREO_COUNT>  (1) 
0

>  <PUBCHEM_ATOM_UDEF_STEREO_COUNT>  (1) 
1

>  <PUBCHEM_BOND_DEF_STEREO_COUNT>  (1) 
0

>  <PUBCHEM_BOND_UDEF_STEREO_COUNT>  (1) 
0

>  <PUBCHEM_ISOTOPIC_ATOM_COUNT>  (1) 
0

>  <PUBCHEM_COMPONENT_COUNT>  (1) 
1

>  <PUBCHEM_CACTVS_TAUTO_COUNT>  (1) 
-1

>  <PUBCHEM_COORDINATE_TYPE>  (1) 
1
5
255

>  <PUBCHEM_BONDANNOTATIONS>  (1) 
7  4  3

$$$$
