21
     RDKit          2D

 10  9  0  0  1  0  0  0  0  0999 V2000
    0.9531    1.5668    0.0000 O   0  0  0  0  0  0  0  0  0  0  0  0
   -1.7723   -1.3180    0.0000 O   0  0  0  0  0  0  0  0  0  0  0  0
   -2.2484   -0.0603    0.0000 O   0  0  0  0  0  0  0  0  0  0  0  0
    0.5963   -2.3857    0.0000 O   0  0  0  0  0  0  0  0  0  0  0  0
    0.3367    0.1994    0.0000 C   0  0  0  0  0  0  0  0  0  0  0  0
    1.7042   -0.4171    0.0000 C   0  0  0  0  0  0  0  0  0  0  0  0
   -1.0308    0.8158    0.0000 C   0  0  0  0  0  0  0  0  0  0  0  0
    2.9217    0.4590    0.0000 C   0  0  0  0  0  0  0  0  0  0  0  0
   -0.2798   -1.1681    0.0000 C   0  0  0  0  0  0  0  0  0  0  0  0
   -1.1807    2.3083    0.0000 C   0  0  0  0  0  0  0  0  0  0  0  0
  1  5  1  0
  2  9  1  0
  3  7  2  0
  4  9  2  0
  5  6  1  0
  5  7  1  0
  5  9  1  0
  6  8  1  0
  7 10  1  0
M  END
>  <PUBCHEM_COMPOUND_CID>  (1) 
21

>  <PUBCHEM_COMPOUND_CANONICALIZED>  (1) 
1

>  <PUBCHEM_CACTVS_COMPLEXITY>  (1) 
163

>  <PUBCHEM_CACTVS_HBOND_ACCEPTOR>  (1) 
4

>  <PUBCHEM_CACTVS_HBOND_DONOR>  (1) 
2

>  <PUBCHEM_CACTVS_ROTATABLE_BOND>  (1) 
3

>  <PUBCHEM_CACTVS_SUBSKEYS>  (1) 
AAADccBgOAAAAAAAAAAAAAAAAAAAAAAAAAAAAAAAAAAAAAAAAAAAGgAACAAADESAgAACCAAAAgAIAICQCAIAAAAAAAAAAAFAAAABABYIAAAAQAAEIAABAAAAAAAKAAAAAAAAAAAAAAAAAAAAAAAAAAAAAA==

>  <PUBCHEM_IUPAC_OPENEYE_NAME>  (1) 
2-ethyl-2-hydroxy-3-oxo-butanoic acid

>  <PUBCHEM_IUPAC_CAS_NAME>  (1) 
2-ethyl-2-hydroxy-3-oxobutanoic acid

>  <PUBCHEM_IUPAC_NAME_MARKUP>  (1) 
2-ethyl-2-hydroxy-3-oxobutanoic acid

>  <PUBCHEM_IUPAC_NAME>  (1) 
2-ethyl-2-hydroxy-3-oxobutanoic acid

>  <PUBCHEM_IUPAC_SYSTEMATIC_NAME>  (1) 
2-ethyl-2-oxidanyl-3-oxidanylidene-butanoic acid

>  <PUBCHEM_IUPAC_TRADITIONAL_NAME>  (1) 
2-ethyl-2-hydroxy-3-keto-butyric acid

>  <PUBCHEM_IUPAC_INCHI>  (1) 
InChI=1S/C6H10O4/c1-3-6(10,4(2)7)5(8)9/h10H,3H2,1-2H3,(H,8,9)

>  <PUBCHEM_IUPAC_INCHIKEY>  (1) 
VUQLHQFKACOHNZ-UHFFFAOYSA-N

>  <PUBCHEM_XLOGP3_AA>  (1) 
-0.2

>  <PUBCHEM_EXACT_MASS>  (1) 
146.057909

>  <PUBCHEM_MOLECULAR_FORMULA>  (1) 
C6H10O4

>  <PUBCHEM_MOLECULAR_WEIGHT>  (1) 
146.14

>  <PUBCHEM_OPENEYE_CAN_SMILES>  (1) 
CCC(C(=O)C)(C(=O)O)O

>  <PUBCHEM_OPENEYE_ISO_SMILES>  (1) 
CCC(C(=O)C)(C(=O)O)O

>  <PUBCHEM_CACTVS_TPSA>  (1) 
74.6

>  <PUBCHEM_MONOISOTOPIC_WEIGHT>  (1) 
146.057909

>  <PUBCHEM_TOTAL_CHARGE>  (1) 
0

>  <PUBCHEM_HEAVY_ATOM_COUNT>  (1) 
10

>  <PUBCHEM_ATOM_DEF_STEREO_COUNT>  (1) 
0

>  <PUBCHEM_ATOM_UDEF_STEREO_COUNT>  (1) 
1

>  <PUBCHEM_BOND_DEF_STEREO_COUNT>  (1) 
0

>  <PUBCHEM_BOND_UDEF_STEREO_COUNT>  (1) 
0

>  <PUBCHEM_ISOTOPIC_ATOM_COUNT>  (1) 
0

>  <PUBCHEM_COMPONENT_COUNT>  (1) 
1

>  <PUBCHEM_CACTVS_TAUTO_COUNT>  (1) 
-1

>  <PUBCHEM_COORDINATE_TYPE>  (1) 
1
5
255

>  <PUBCHEM_BONDANNOTATIONS>  (1) 
5  1  3

$$$$
