211
     RDKit          2D

 20 22  0  0  1  0  0  0  0  0999 V2000
    1.6521    0.9199    0.0000 O   0  0  0  0  0  0  0  0  0  0  0  0
    2.8252   -2.7800    0.0000 O   0  0  0  0  0  0  0  0  0  0  0  0
    5.2331   -0.5774    0.0000 O   0  0  0  0  0  0  0  0  0  0  0  0
    3.1222    3.6864    0.0000 O   0  0  0  0  0  0  0  0  0  0  0  0
   -0.0137   -1.1706    0.0000 N   0  0  0  0  0  0  0  0  0  0  0  0
   -1.8045   -2.8088    0.0000 N   0  0  0  0  0  0  0  0  0  0  0  0
    1.3518   -0.5498    0.0000 C   0  0  0  0  0  0  0  0  0  0  0  0
    2.6567   -1.2895    0.0000 C   0  0  0  0  0  0  0  0  0  0  0  0
    3.7635   -0.2771    0.0000 C   0  0  0  0  0  0  0  0  0  0  0  0
    3.1426    1.0884    0.0000 C   0  0  0  0  0  0  0  0  0  0  0  0
    3.8824    2.3933    0.0000 C   0  0  0  0  0  0  0  0  0  0  0  0
   -1.3186   -0.4309    0.0000 C   0  0  0  0  0  0  0  0  0  0  0  0
   -0.3140   -2.6402    0.0000 C   0  0  0  0  0  0  0  0  0  0  0  0
   -2.4254   -1.4433    0.0000 C   0  0  0  0  0  0  0  0  0  0  0  0
   -1.6420    1.0339    0.0000 C   0  0  0  0  0  0  0  0  0  0  0  0
   -3.0722    1.4861    0.0000 C   0  0  0  0  0  0  0  0  0  0  0  0
   -3.8556   -0.9910    0.0000 C   0  0  0  0  0  0  0  0  0  0  0  0
   -4.1790    0.4737    0.0000 C   0  0  0  0  0  0  0  0  0  0  0  0
   -3.3956    2.9509    0.0000 C   0  0  0  0  0  0  0  0  0  0  0  0
   -5.6091    0.9260    0.0000 C   0  0  0  0  0  0  0  0  0  0  0  0
  1  7  1  0
  1 10  1  0
  2  8  1  0
  3  9  1  0
  4 11  1  0
  5  7  1  0
  5 12  1  0
  5 13  1  0
  6 13  2  0
  6 14  1  0
  7  8  1  0
  8  9  1  0
  9 10  1  0
 10 11  1  0
 12 14  2  0
 12 15  1  0
 14 17  1  0
 15 16  2  0
 16 18  1  0
 16 19  1  0
 17 18  2  0
 18 20  1  0
M  END
>  <PUBCHEM_COMPOUND_CID>  (1) 
211

>  <PUBCHEM_COMPOUND_CANONICALIZED>  (1) 
1

>  <PUBCHEM_CACTVS_COMPLEXITY>  (1) 
356

>  <PUBCHEM_CACTVS_HBOND_ACCEPTOR>  (1) 
5

>  <PUBCHEM_CACTVS_HBOND_DONOR>  (1) 
3

>  <PUBCHEM_CACTVS_ROTATABLE_BOND>  (1) 
2

>  <PUBCHEM_CACTVS_SUBSKEYS>  (1) 
AAADceBzOAAAAAAAAAAAAAAAAAAAAWJAAAAwAAAAAAAAAFgB8AAAHgAACAAADBzhngY30LcMFgCgAyRjZACCgC0xEqAB2CA4dJiLeKLAmZGeYAhvgALbyCfwsIIOiAAAQAAQACAQAACAACAAQAAAAAAAAA==

>  <PUBCHEM_IUPAC_OPENEYE_NAME>  (1) 
2-(5,6-dimethylbenzimidazol-1-yl)-5-(hydroxymethyl)tetrahydrofuran-3,4-diol

>  <PUBCHEM_IUPAC_CAS_NAME>  (1) 
2-(5,6-dimethyl-1-benzimidazolyl)-5-(hydroxymethyl)oxolane-3,4-diol

>  <PUBCHEM_IUPAC_NAME_MARKUP>  (1) 
2-(5,6-dimethylbenzimidazol-1-yl)-5-(hydroxymethyl)oxolane-3,4-diol

>  <PUBCHEM_IUPAC_NAME>  (1) 
2-(5,6-dimethylbenzimidazol-1-yl)-5-(hydroxymethyl)oxolane-3,4-diol

>  <PUBCHEM_IUPAC_SYSTEMATIC_NAME>  (1) 
2-(5,6-dimethylbenzimidazol-1-yl)-5-(hydroxymethyl)oxolane-3,4-diol

>  <PUBCHEM_IUPAC_TRADITIONAL_NAME>  (1) 
2-(5,6-dimethylbenzimidazol-1-yl)-5-methylol-tetrahydrofuran-3,4-diol

>  <PUBCHEM_IUPAC_INCHI>  (1) 
InChI=1S/C14H18N2O4/c1-7-3-9-10(4-8(7)2)16(6-15-9)14-13(19)12(18)11(5-17)20-14/h3-4,6,11-14,17-19H,5H2,1-2H3

>  <PUBCHEM_IUPAC_INCHIKEY>  (1) 
HLRUKOJSWOKCPP-UHFFFAOYSA-N

>  <PUBCHEM_XLOGP3_AA>  (1) 
0.6

>  <PUBCHEM_EXACT_MASS>  (1) 
278.126657

>  <PUBCHEM_MOLECULAR_FORMULA>  (1) 
C14H18N2O4

>  <PUBCHEM_MOLECULAR_WEIGHT>  (1) 
278.3

>  <PUBCHEM_OPENEYE_CAN_SMILES>  (1) 
CC1=CC2=C(C=C1C)N(C=N2)C3C(C(C(O3)CO)O)O

>  <PUBCHEM_OPENEYE_ISO_SMILES>  (1) 
CC1=CC2=C(C=C1C)N(C=N2)C3C(C(C(O3)CO)O)O

>  <PUBCHEM_CACTVS_TPSA>  (1) 
87.7

>  <PUBCHEM_MONOISOTOPIC_WEIGHT>  (1) 
278.126657

>  <PUBCHEM_TOTAL_CHARGE>  (1) 
0

>  <PUBCHEM_HEAVY_ATOM_COUNT>  (1) 
20

>  <PUBCHEM_ATOM_DEF_STEREO_COUNT>  (1) 
0

>  <PUBCHEM_ATOM_UDEF_STEREO_COUNT>  (1) 
4

>  <PUBCHEM_BOND_DEF_STEREO_COUNT>  (1) 
0

>  <PUBCHEM_BOND_UDEF_STEREO_COUNT>  (1) 
0

>  <PUBCHEM_ISOTOPIC_ATOM_COUNT>  (1) 
0

>  <PUBCHEM_COMPONENT_COUNT>  (1) 
1

>  <PUBCHEM_CACTVS_TAUTO_COUNT>  (1) 
-1

>  <PUBCHEM_COORDINATE_TYPE>  (1) 
1
5
255

>  <PUBCHEM_BONDANNOTATIONS>  (1) 
10  11  3
12  14  8
12  15  8
14  17  8
15  16  8
16  18  8
17  18  8
8  2  3
9  3  3
5  12  8
5  13  8
7  5  3
6  13  8
6  14  8

$$$$
