213
     RDKit          2D

 25 26  0  0  1  0  0  0  0  0999 V2000
    6.0617   -1.9027    0.0000 O   0  0  0  0  0  0  0  0  0  0  0  0
    4.3508    0.5454    0.0000 O   0  0  0  0  0  0  0  0  0  0  0  0
   -0.9725    1.5006    0.0000 O   0  0  0  0  0  0  0  0  0  0  0  0
   -7.0456   -2.9003    0.0000 O   0  0  0  0  0  0  0  0  0  0  0  0
   -5.5211   -5.0041    0.0000 O   0  0  0  0  0  0  0  0  0  0  0  0
    4.6607   -2.4386    0.0000 C   0  0  0  0  0  0  0  0  0  0  0  0
    3.2911   -1.8268    0.0000 C   0  0  0  0  0  0  0  0  0  0  0  0
    4.1249   -1.0375    0.0000 C   0  0  0  0  0  0  0  0  0  0  0  0
    5.5259   -0.5017    0.0000 C   0  0  0  0  0  0  0  0  0  0  0  0
    3.1362   -0.3348    0.0000 C   0  0  0  0  0  0  0  0  0  0  0  0
    2.0765   -2.7069    0.0000 C   0  0  0  0  0  0  0  0  0  0  0  0
    1.7666    0.2770    0.0000 C   0  0  0  0  0  0  0  0  0  0  0  0
    0.7069   -2.0952    0.0000 C   0  0  0  0  0  0  0  0  0  0  0  0
    1.6116    1.7690    0.0000 C   0  0  0  0  0  0  0  0  0  0  0  0
    0.2421    2.3808    0.0000 C   0  0  0  0  0  0  0  0  0  0  0  0
   -0.5077   -2.9753    0.0000 C   0  0  0  0  0  0  0  0  0  0  0  0
    0.0871    3.8728    0.0000 C   0  0  0  0  0  0  0  0  0  0  0  0
   -1.8772   -2.3635    0.0000 C   0  0  0  0  0  0  0  0  0  0  0  0
   -1.2824    4.4845    0.0000 C   0  0  0  0  0  0  0  0  0  0  0  0
   -1.4374    5.9765    0.0000 C   0  0  0  0  0  0  0  0  0  0  0  0
   -3.0919   -3.2437    0.0000 C   0  0  0  0  0  0  0  0  0  0  0  0
   -2.8070    6.5883    0.0000 C   0  0  0  0  0  0  0  0  0  0  0  0
   -4.4614   -2.6319    0.0000 C   0  0  0  0  0  0  0  0  0  0  0  0
   -2.9619    8.0803    0.0000 C   0  0  0  0  0  0  0  0  0  0  0  0
   -5.6760   -3.5121    0.0000 C   0  0  0  0  0  0  0  0  0  0  0  0
  1  6  1  0
  1  9  1  0
  2  9  1  0
  2 10  1  0
  3 15  1  0
  4 25  1  0
  5 25  2  0
  6  7  1  0
  6  8  1  0
  7 10  1  0
  7 11  1  0
  8  9  1  0
 10 12  1  0
 11 13  1  0
 12 14  2  3
 13 16  2  3
 14 15  1  0
 15 17  1  0
 16 18  1  0
 17 19  1  0
 18 21  1  0
 19 20  1  0
 20 22  1  0
 21 23  1  0
 22 24  1  0
 23 25  1  0
M  END
>  <PUBCHEM_COMPOUND_CID>  (1) 
213

>  <PUBCHEM_COMPOUND_CANONICALIZED>  (1) 
1

>  <PUBCHEM_CACTVS_COMPLEXITY>  (1) 
459

>  <PUBCHEM_CACTVS_HBOND_ACCEPTOR>  (1) 
5

>  <PUBCHEM_CACTVS_HBOND_DONOR>  (1) 
2

>  <PUBCHEM_CACTVS_ROTATABLE_BOND>  (1) 
12

>  <PUBCHEM_CACTVS_SUBSKEYS>  (1) 
AAADcfB4OAAAAAAAAAAAAAAAAABIAAAAAAAkSAAAAAAAAAAAAAAAGgAACAAADRSwgAMCCAAABgCIACDSCAAAAAAgAAAICAEAAAgQFBIAIQAiUAAFgAAMMAOI4AQOAAAAAAAAAAAAAAAAAAAAAAAAAAAAAA==

>  <PUBCHEM_IUPAC_OPENEYE_NAME>  (1) 
7-[3-(3-hydroxyoct-1-enyl)-2,6-dioxabicyclo[3.1.1]heptan-4-yl]hept-5-enoic acid

>  <PUBCHEM_IUPAC_CAS_NAME>  (1) 
7-[3-(3-hydroxyoct-1-enyl)-2,6-dioxabicyclo[3.1.1]heptan-4-yl]-5-heptenoic acid

>  <PUBCHEM_IUPAC_NAME_MARKUP>  (1) 
7-[3-(3-hydroxyoct-1-enyl)-2,6-dioxabicyclo[3.1.1]heptan-4-yl]hept-5-enoic acid

>  <PUBCHEM_IUPAC_NAME>  (1) 
7-[3-(3-hydroxyoct-1-enyl)-2,6-dioxabicyclo[3.1.1]heptan-4-yl]hept-5-enoic acid

>  <PUBCHEM_IUPAC_SYSTEMATIC_NAME>  (1) 
7-[3-(3-oxidanyloct-1-enyl)-2,6-dioxabicyclo[3.1.1]heptan-4-yl]hept-5-enoic acid

>  <PUBCHEM_IUPAC_TRADITIONAL_NAME>  (1) 
7-[3-(3-hydroxyoct-1-enyl)-2,6-dioxabicyclo[3.1.1]heptan-4-yl]hept-5-enoic acid

>  <PUBCHEM_IUPAC_INCHI>  (1) 
InChI=1S/C20H32O5/c1-2-3-6-9-15(21)12-13-17-16(18-14-20(24-17)25-18)10-7-4-5-8-11-19(22)23/h4,7,12-13,15-18,20-21H,2-3,5-6,8-11,14H2,1H3,(H,22,23)

>  <PUBCHEM_IUPAC_INCHIKEY>  (1) 
DSNBHJFQCNUKMA-UHFFFAOYSA-N

>  <PUBCHEM_XLOGP3_AA>  (1) 
3.4

>  <PUBCHEM_EXACT_MASS>  (1) 
352.224974

>  <PUBCHEM_MOLECULAR_FORMULA>  (1) 
C20H32O5

>  <PUBCHEM_MOLECULAR_WEIGHT>  (1) 
352.5

>  <PUBCHEM_OPENEYE_CAN_SMILES>  (1) 
CCCCCC(C=CC1C(C2CC(O2)O1)CC=CCCCC(=O)O)O

>  <PUBCHEM_OPENEYE_ISO_SMILES>  (1) 
CCCCCC(C=CC1C(C2CC(O2)O1)CC=CCCCC(=O)O)O

>  <PUBCHEM_CACTVS_TPSA>  (1) 
76

>  <PUBCHEM_MONOISOTOPIC_WEIGHT>  (1) 
352.224974

>  <PUBCHEM_TOTAL_CHARGE>  (1) 
0

>  <PUBCHEM_HEAVY_ATOM_COUNT>  (1) 
25

>  <PUBCHEM_ATOM_DEF_STEREO_COUNT>  (1) 
0

>  <PUBCHEM_ATOM_UDEF_STEREO_COUNT>  (1) 
5

>  <PUBCHEM_BOND_DEF_STEREO_COUNT>  (1) 
0

>  <PUBCHEM_BOND_UDEF_STEREO_COUNT>  (1) 
2

>  <PUBCHEM_ISOTOPIC_ATOM_COUNT>  (1) 
0

>  <PUBCHEM_COMPONENT_COUNT>  (1) 
1

>  <PUBCHEM_CACTVS_TAUTO_COUNT>  (1) 
-1

>  <PUBCHEM_COORDINATE_TYPE>  (1) 
1
5
255

>  <PUBCHEM_BONDANNOTATIONS>  (1) 
10  12  3
12  14  1
13  16  1
15  3  3
6  8  3
7  11  3
9  8  3

$$$$
