220
     RDKit          2D

 16 16  0  0  0  0  0  0  0  0999 V2000
   -2.6565    1.1378    0.0000 S   0  0  0  0  0  0  0  0  0  0  0  0
   -1.6903   -0.0095    0.0000 P   0  0  0  0  0  0  0  0  0  0  0  0
   -0.7241   -1.1569    0.0000 O   0  0  0  0  0  0  0  0  0  0  0  0
   -0.5429    0.9567    0.0000 O   0  0  0  0  0  0  0  0  0  0  0  0
   -2.8376   -0.9757    0.0000 O   0  0  0  0  0  0  0  0  0  0  0  0
    5.1829   -0.1046    0.0000 N   0  0  0  0  0  0  0  0  0  0  0  0
    0.7527   -0.8938    0.0000 C   0  0  0  0  0  0  0  0  0  0  0  0
   -0.8060    2.4334    0.0000 C   0  0  0  0  0  0  0  0  0  0  0  0
   -4.2481   -0.4652    0.0000 C   0  0  0  0  0  0  0  0  0  0  0  0
    1.2632    0.5166    0.0000 C   0  0  0  0  0  0  0  0  0  0  0  0
    1.7189   -2.0412    0.0000 C   0  0  0  0  0  0  0  0  0  0  0  0
    3.7062   -0.3676    0.0000 C   0  0  0  0  0  0  0  0  0  0  0  0
    2.7400    0.7797    0.0000 C   0  0  0  0  0  0  0  0  0  0  0  0
    3.1956   -1.7781    0.0000 C   0  0  0  0  0  0  0  0  0  0  0  0
    0.3414    3.3996    0.0000 C   0  0  0  0  0  0  0  0  0  0  0  0
   -5.3954   -1.4314    0.0000 C   0  0  0  0  0  0  0  0  0  0  0  0
  1  2  2  0
  2  3  1  0
  2  4  1  0
  2  5  1  0
  3  7  1  0
  4  8  1  0
  5  9  1  0
  6 12  1  0
  7 10  2  0
  7 11  1  0
  8 15  1  0
  9 16  1  0
 10 13  1  0
 11 14  2  0
 12 13  2  0
 12 14  1  0
M  END
>  <PUBCHEM_COMPOUND_CID>  (1) 
220

>  <PUBCHEM_COMPOUND_CANONICALIZED>  (1) 
1

>  <PUBCHEM_CACTVS_COMPLEXITY>  (1) 
234

>  <PUBCHEM_CACTVS_HBOND_ACCEPTOR>  (1) 
5

>  <PUBCHEM_CACTVS_HBOND_DONOR>  (1) 
1

>  <PUBCHEM_CACTVS_ROTATABLE_BOND>  (1) 
6

>  <PUBCHEM_CACTVS_SUBSKEYS>  (1) 
AAADceByMAJAAAAAAAAAAAAAAAAAAAAAAAAwAAAAAAAAAAABAAAAHgAQACAACAyhkAIyxoBAARCAACRCQACCAAAgIgAIiAAGbIgIJiKAkZOAMABk0BEIyAewQAAAAEAAAAAAAAAAgAAAAAAAAAAAAAAAAA==

>  <PUBCHEM_IUPAC_OPENEYE_NAME>  (1) 
4-diethoxyphosphinothioyloxyaniline

>  <PUBCHEM_IUPAC_CAS_NAME>  (1) 
4-diethoxyphosphinothioyloxyaniline

>  <PUBCHEM_IUPAC_NAME_MARKUP>  (1) 
4-diethoxyphosphinothioyloxyaniline

>  <PUBCHEM_IUPAC_NAME>  (1) 
4-diethoxyphosphinothioyloxyaniline

>  <PUBCHEM_IUPAC_SYSTEMATIC_NAME>  (1) 
4-diethoxyphosphinothioyloxyaniline

>  <PUBCHEM_IUPAC_TRADITIONAL_NAME>  (1) 
(4-diethoxythiophosphoryloxyphenyl)amine

>  <PUBCHEM_IUPAC_INCHI>  (1) 
InChI=1S/C10H16NO3PS/c1-3-12-15(16,13-4-2)14-10-7-5-9(11)6-8-10/h5-8H,3-4,11H2,1-2H3

>  <PUBCHEM_IUPAC_INCHIKEY>  (1) 
XIZOTXGJXSTQDI-UHFFFAOYSA-N

>  <PUBCHEM_XLOGP3>  (1) 
2.6

>  <PUBCHEM_EXACT_MASS>  (1) 
261.058852

>  <PUBCHEM_MOLECULAR_FORMULA>  (1) 
C10H16NO3PS

>  <PUBCHEM_MOLECULAR_WEIGHT>  (1) 
261.28

>  <PUBCHEM_OPENEYE_CAN_SMILES>  (1) 
CCOP(=S)(OCC)OC1=CC=C(C=C1)N

>  <PUBCHEM_OPENEYE_ISO_SMILES>  (1) 
CCOP(=S)(OCC)OC1=CC=C(C=C1)N

>  <PUBCHEM_CACTVS_TPSA>  (1) 
85.8

>  <PUBCHEM_MONOISOTOPIC_WEIGHT>  (1) 
261.058852

>  <PUBCHEM_TOTAL_CHARGE>  (1) 
0

>  <PUBCHEM_HEAVY_ATOM_COUNT>  (1) 
16

>  <PUBCHEM_ATOM_DEF_STEREO_COUNT>  (1) 
0

>  <PUBCHEM_ATOM_UDEF_STEREO_COUNT>  (1) 
0

>  <PUBCHEM_BOND_DEF_STEREO_COUNT>  (1) 
0

>  <PUBCHEM_BOND_UDEF_STEREO_COUNT>  (1) 
0

>  <PUBCHEM_ISOTOPIC_ATOM_COUNT>  (1) 
0

>  <PUBCHEM_COMPONENT_COUNT>  (1) 
1

>  <PUBCHEM_CACTVS_TAUTO_COUNT>  (1) 
-1

>  <PUBCHEM_COORDINATE_TYPE>  (1) 
1
5
255

>  <PUBCHEM_BONDANNOTATIONS>  (1) 
10  13  8
11  14  8
12  13  8
12  14  8
7  10  8
7  11  8

$$$$
