224
     RDKit          2D

 23 25  0  0  1  0  0  0  0  0999 V2000
   -4.9488   -1.7566    0.0000 P   0  0  0  0  0  0  0  0  0  0  0  0
   -0.7730    0.2492    0.0000 O   0  0  0  0  0  0  0  0  0  0  0  0
    0.4431    3.9352    0.0000 O   0  0  0  0  0  0  0  0  0  0  0  0
   -2.7987    3.5602    0.0000 O   0  0  0  0  0  0  0  0  0  0  0  0
   -3.5849   -1.1321    0.0000 O   0  0  0  0  0  0  0  0  0  0  0  0
   -5.5732   -0.3927    0.0000 O   0  0  0  0  0  0  0  0  0  0  0  0
   -6.3126   -2.3810    0.0000 O   0  0  0  0  0  0  0  0  0  0  0  0
   -4.3244   -3.1204    0.0000 O   0  0  0  0  0  0  0  0  0  0  0  0
    1.8015    0.9680    0.0000 N   0  0  0  0  0  0  0  0  0  0  0  0
    4.2125    1.2469    0.0000 N   0  0  0  0  0  0  0  0  0  0  0  0
    1.8302   -1.7725    0.0000 N   0  0  0  0  0  0  0  0  0  0  0  0
    4.2146   -2.8043    0.0000 N   0  0  0  0  0  0  0  0  0  0  0  0
    6.3004   -1.2553    0.0000 N   0  0  0  0  0  0  0  0  0  0  0  0
   -0.2933    2.6284    0.0000 C   0  0  0  0  0  0  0  0  0  0  0  0
   -1.7834    2.4560    0.0000 C   0  0  0  0  0  0  0  0  0  0  0  0
    0.3311    1.2645    0.0000 C   0  0  0  0  0  0  0  0  0  0  0  0
   -2.0799    0.9856    0.0000 C   0  0  0  0  0  0  0  0  0  0  0  0
   -3.4437    0.3612    0.0000 C   0  0  0  0  0  0  0  0  0  0  0  0
    2.4259   -0.3958    0.0000 C   0  0  0  0  0  0  0  0  0  0  0  0
    2.9057    1.9833    0.0000 C   0  0  0  0  0  0  0  0  0  0  0  0
    3.9160   -0.2235    0.0000 C   0  0  0  0  0  0  0  0  0  0  0  0
    4.8103   -1.4277    0.0000 C   0  0  0  0  0  0  0  0  0  0  0  0
    2.7245   -2.9767    0.0000 C   0  0  0  0  0  0  0  0  0  0  0  0
  1  5  1  0
  1  6  1  0
  1  7  1  0
  1  8  2  0
  2 16  1  0
  2 17  1  0
  3 14  1  0
  4 15  1  0
  5 18  1  0
  9 16  1  0
  9 19  1  0
  9 20  1  0
 10 20  2  0
 10 21  1  0
 11 19  1  0
 11 23  2  0
 12 22  2  0
 12 23  1  0
 13 22  1  0
 14 15  1  0
 14 16  1  0
 15 17  1  0
 17 18  1  0
 19 21  2  0
 21 22  1  0
M  END
>  <PUBCHEM_COMPOUND_CID>  (1) 
224

>  <PUBCHEM_COMPOUND_CANONICALIZED>  (1) 
1

>  <PUBCHEM_CACTVS_COMPLEXITY>  (1) 
481

>  <PUBCHEM_CACTVS_HBOND_ACCEPTOR>  (1) 
11

>  <PUBCHEM_CACTVS_HBOND_DONOR>  (1) 
5

>  <PUBCHEM_CACTVS_ROTATABLE_BOND>  (1) 
4

>  <PUBCHEM_CACTVS_SUBSKEYS>  (1) 
AAADccBzuAIAAAAAAAAAAAAAAAAAAWJAAAAsAAAAAAAAAFgB+AAAHgAQCCAACBzhlwYF8L9MFxCgQQZhZICAgC0REKABUCAoVBCDWAJAyEAeRAgPAALTACDwMAIAAAAAAAAAAAAAAAAAAAAAAAAAAAAAAA==

>  <PUBCHEM_IUPAC_OPENEYE_NAME>  (1) 
[5-(6-aminopurin-9-yl)-3,4-dihydroxy-tetrahydrofuran-2-yl]methyl dihydrogen phosphate

>  <PUBCHEM_IUPAC_CAS_NAME>  (1) 
[5-(6-aminopurin-9-yl)-3,4-dihydroxy-2-oxolanyl]methyl dihydrogen phosphate

>  <PUBCHEM_IUPAC_NAME_MARKUP>  (1) 
[5-(6-aminopurin-9-yl)-3,4-dihydroxyoxolan-2-yl]methyl dihydrogen phosphate

>  <PUBCHEM_IUPAC_NAME>  (1) 
[5-(6-aminopurin-9-yl)-3,4-dihydroxyoxolan-2-yl]methyl dihydrogen phosphate

>  <PUBCHEM_IUPAC_SYSTEMATIC_NAME>  (1) 
[5-(6-aminopurin-9-yl)-3,4-bis(oxidanyl)oxolan-2-yl]methyl dihydrogen phosphate

>  <PUBCHEM_IUPAC_TRADITIONAL_NAME>  (1) 
(5-adenin-9-yl-3,4-dihydroxy-tetrahydrofuran-2-yl)methyl dihydrogen phosphate

>  <PUBCHEM_IUPAC_INCHI>  (1) 
InChI=1S/C10H14N5O7P/c11-8-5-9(13-2-12-8)15(3-14-5)10-7(17)6(16)4(22-10)1-21-23(18,19)20/h2-4,6-7,10,16-17H,1H2,(H2,11,12,13)(H2,18,19,20)

>  <PUBCHEM_IUPAC_INCHIKEY>  (1) 
UDMBCSSLTHHNCD-UHFFFAOYSA-N

>  <PUBCHEM_XLOGP3>  (1) 
-3.5

>  <PUBCHEM_EXACT_MASS>  (1) 
347.063085

>  <PUBCHEM_MOLECULAR_FORMULA>  (1) 
C10H14N5O7P

>  <PUBCHEM_MOLECULAR_WEIGHT>  (1) 
347.22

>  <PUBCHEM_OPENEYE_CAN_SMILES>  (1) 
C1=NC(=C2C(=N1)N(C=N2)C3C(C(C(O3)COP(=O)(O)O)O)O)N

>  <PUBCHEM_OPENEYE_ISO_SMILES>  (1) 
C1=NC(=C2C(=N1)N(C=N2)C3C(C(C(O3)COP(=O)(O)O)O)O)N

>  <PUBCHEM_CACTVS_TPSA>  (1) 
186

>  <PUBCHEM_MONOISOTOPIC_WEIGHT>  (1) 
347.063085

>  <PUBCHEM_TOTAL_CHARGE>  (1) 
0

>  <PUBCHEM_HEAVY_ATOM_COUNT>  (1) 
23

>  <PUBCHEM_ATOM_DEF_STEREO_COUNT>  (1) 
0

>  <PUBCHEM_ATOM_UDEF_STEREO_COUNT>  (1) 
4

>  <PUBCHEM_BOND_DEF_STEREO_COUNT>  (1) 
0

>  <PUBCHEM_BOND_UDEF_STEREO_COUNT>  (1) 
0

>  <PUBCHEM_ISOTOPIC_ATOM_COUNT>  (1) 
0

>  <PUBCHEM_COMPONENT_COUNT>  (1) 
1

>  <PUBCHEM_CACTVS_TAUTO_COUNT>  (1) 
-1

>  <PUBCHEM_COORDINATE_TYPE>  (1) 
1
5
255

>  <PUBCHEM_BONDANNOTATIONS>  (1) 
10  20  8
10  21  8
11  19  8
11  23  8
12  22  8
12  23  8
17  18  3
19  21  8
21  22  8
14  3  3
15  4  3
16  9  3
9  19  8
9  20  8

$$$$
