231
     RDKit          2D

 22 21  0  0  0  0  0  0  0  0999 V2000
   12.4510   -0.6280    0.0000 O   0  0  0  0  0  0  0  0  0  0  0  0
   11.1855    1.6411    0.0000 O   0  0  0  0  0  0  0  0  0  0  0  0
   -9.6191    0.4496    0.0000 C   0  0  0  0  0  0  0  0  0  0  0  0
  -10.9291   -0.2811    0.0000 C   0  0  0  0  0  0  0  0  0  0  0  0
   -8.3313   -0.3196    0.0000 C   0  0  0  0  0  0  0  0  0  0  0  0
  -12.2169    0.4881    0.0000 C   0  0  0  0  0  0  0  0  0  0  0  0
   -7.0213    0.4110    0.0000 C   0  0  0  0  0  0  0  0  0  0  0  0
  -13.5269   -0.2425    0.0000 C   0  0  0  0  0  0  0  0  0  0  0  0
    8.5655    0.1798    0.0000 C   0  0  0  0  0  0  0  0  0  0  0  0
    7.2554   -0.5509    0.0000 C   0  0  0  0  0  0  0  0  0  0  0  0
   -5.7335   -0.3582    0.0000 C   0  0  0  0  0  0  0  0  0  0  0  0
   -4.4235    0.3725    0.0000 C   0  0  0  0  0  0  0  0  0  0  0  0
    9.8532   -0.5894    0.0000 C   0  0  0  0  0  0  0  0  0  0  0  0
    5.9677    0.2183    0.0000 C   0  0  0  0  0  0  0  0  0  0  0  0
    3.3699    0.2569    0.0000 C   0  0  0  0  0  0  0  0  0  0  0  0
   -3.1357   -0.3967    0.0000 C   0  0  0  0  0  0  0  0  0  0  0  0
    4.6576   -0.5123    0.0000 C   0  0  0  0  0  0  0  0  0  0  0  0
   -0.5379   -0.4352    0.0000 C   0  0  0  0  0  0  0  0  0  0  0  0
   -1.8257    0.3339    0.0000 C   0  0  0  0  0  0  0  0  0  0  0  0
    2.0598   -0.4738    0.0000 C   0  0  0  0  0  0  0  0  0  0  0  0
    0.7721    0.2954    0.0000 C   0  0  0  0  0  0  0  0  0  0  0  0
   11.1632    0.1412    0.0000 C   0  0  0  0  0  0  0  0  0  0  0  0
  1 22  1  0
  2 22  2  0
  3  4  1  0
  3  5  1  0
  4  6  1  0
  5  7  1  0
  6  8  1  0
  7 11  2  3
  9 10  1  0
  9 13  1  0
 10 14  1  0
 11 12  1  0
 12 16  1  0
 13 22  1  0
 14 17  2  3
 15 17  1  0
 15 20  1  0
 16 19  2  3
 18 19  1  0
 18 21  1  0
 20 21  2  3
M  END
>  <PUBCHEM_COMPOUND_CID>  (1) 
231

>  <PUBCHEM_COMPOUND_CANONICALIZED>  (1) 
1

>  <PUBCHEM_CACTVS_COMPLEXITY>  (1) 
362

>  <PUBCHEM_CACTVS_HBOND_ACCEPTOR>  (1) 
2

>  <PUBCHEM_CACTVS_HBOND_DONOR>  (1) 
1

>  <PUBCHEM_CACTVS_ROTATABLE_BOND>  (1) 
14

>  <PUBCHEM_CACTVS_SUBSKEYS>  (1) 
AAADcfB4MAAAAAAAAAAAAAAAAAAAAAAAAAAAAAAAAAAAAAAAAAAAGgAACAAACACAgAACCAAAAgCIACDSCAAAAAAgAAAICAEAAAgAABIAAQAAQAAEgAAIAAOIAAAAAAAAAAAAAAAAAAAAAAAAAAAAAAAAAA==

>  <PUBCHEM_IUPAC_OPENEYE_NAME>  (1) 
icosa-5,8,11,14-tetraenoic acid

>  <PUBCHEM_IUPAC_CAS_NAME>  (1) 
eicosa-5,8,11,14-tetraenoic acid

>  <PUBCHEM_IUPAC_NAME_MARKUP>  (1) 
icosa-5,8,11,14-tetraenoic acid

>  <PUBCHEM_IUPAC_NAME>  (1) 
icosa-5,8,11,14-tetraenoic acid

>  <PUBCHEM_IUPAC_SYSTEMATIC_NAME>  (1) 
icosa-5,8,11,14-tetraenoic acid

>  <PUBCHEM_IUPAC_TRADITIONAL_NAME>  (1) 
eicosa-5,8,11,14-tetraenoic acid

>  <PUBCHEM_IUPAC_INCHI>  (1) 
InChI=1S/C20H32O2/c1-2-3-4-5-6-7-8-9-10-11-12-13-14-15-16-17-18-19-20(21)22/h6-7,9-10,12-13,15-16H,2-5,8,11,14,17-19H2,1H3,(H,21,22)

>  <PUBCHEM_IUPAC_INCHIKEY>  (1) 
YZXBAPSDXZZRGB-UHFFFAOYSA-N

>  <PUBCHEM_XLOGP3_AA>  (1) 
6.3

>  <PUBCHEM_EXACT_MASS>  (1) 
304.24023

>  <PUBCHEM_MOLECULAR_FORMULA>  (1) 
C20H32O2

>  <PUBCHEM_MOLECULAR_WEIGHT>  (1) 
304.5

>  <PUBCHEM_OPENEYE_CAN_SMILES>  (1) 
CCCCCC=CCC=CCC=CCC=CCCCC(=O)O

>  <PUBCHEM_OPENEYE_ISO_SMILES>  (1) 
CCCCCC=CCC=CCC=CCC=CCCCC(=O)O

>  <PUBCHEM_CACTVS_TPSA>  (1) 
37.3

>  <PUBCHEM_MONOISOTOPIC_WEIGHT>  (1) 
304.24023

>  <PUBCHEM_TOTAL_CHARGE>  (1) 
0

>  <PUBCHEM_HEAVY_ATOM_COUNT>  (1) 
22

>  <PUBCHEM_ATOM_DEF_STEREO_COUNT>  (1) 
0

>  <PUBCHEM_ATOM_UDEF_STEREO_COUNT>  (1) 
0

>  <PUBCHEM_BOND_DEF_STEREO_COUNT>  (1) 
0

>  <PUBCHEM_BOND_UDEF_STEREO_COUNT>  (1) 
4

>  <PUBCHEM_ISOTOPIC_ATOM_COUNT>  (1) 
0

>  <PUBCHEM_COMPONENT_COUNT>  (1) 
1

>  <PUBCHEM_CACTVS_TAUTO_COUNT>  (1) 
-1

>  <PUBCHEM_COORDINATE_TYPE>  (1) 
1
5
255

>  <PUBCHEM_BONDANNOTATIONS>  (1) 
14  17  1
16  19  1
20  21  1
7  11  1

$$$$
