233
     RDKit          2D

  5  4  0  0  0  0  0  0  0  0999 V2000
    0.0000   -0.0000    0.0000 As  0  0  0  0  0  5  0  0  0  0  0  0
   -1.2990   -0.7500    0.0000 O   0  0  0  0  0  0  0  0  0  0  0  0
   -0.7500    1.2990    0.0000 O   0  0  0  0  0  0  0  0  0  0  0  0
    0.7500   -1.2990    0.0000 O   0  0  0  0  0  0  0  0  0  0  0  0
    1.2990    0.7500    0.0000 O   0  0  0  0  0  0  0  0  0  0  0  0
  1  2  1  0
  1  3  1  0
  1  4  1  0
  1  5  2  0
M  CHG  2   3  -1   4  -1
M  END
>  <PUBCHEM_COMPOUND_CID>  (1) 
233

>  <PUBCHEM_COMPOUND_CANONICALIZED>  (1) 
1

>  <PUBCHEM_CACTVS_COMPLEXITY>  (1) 
46.5

>  <PUBCHEM_CACTVS_HBOND_ACCEPTOR>  (1) 
4

>  <PUBCHEM_CACTVS_HBOND_DONOR>  (1) 
1

>  <PUBCHEM_CACTVS_ROTATABLE_BOND>  (1) 
0

>  <PUBCHEM_CACTVS_SUBSKEYS>  (1) 
AAADcQAAOAAAAAAAQAAAAAAAAAAAAAAAAAAAAAAAAAAAAAAAAAAAAAAACAAAAAAAAAAAAAAAAAAAAAAAAAAAAAAAAAAAAAAAAAAAAAAAAAAAAAAAAAAAAAAAAAAAAAAAAAAAAAAAAAAAAAAAAAAAAAAAAA==

>  <PUBCHEM_IUPAC_OPENEYE_NAME>  (1) 
hydrogen arsorate

>  <PUBCHEM_IUPAC_CAS_NAME>  (1) 
hydrogen arsorate

>  <PUBCHEM_IUPAC_NAME_MARKUP>  (1) 
hydrogen arsorate

>  <PUBCHEM_IUPAC_NAME>  (1) 
hydrogen arsorate

>  <PUBCHEM_IUPAC_SYSTEMATIC_NAME>  (1) 
hydrogen arsorate

>  <PUBCHEM_IUPAC_TRADITIONAL_NAME>  (1) 
hydrogen arsorate

>  <PUBCHEM_IUPAC_INCHI>  (1) 
InChI=1S/AsH3O4/c2-1(3,4)5/h(H3,2,3,4,5)/p-2

>  <PUBCHEM_IUPAC_INCHIKEY>  (1) 
DJHGAFSJWGLOIV-UHFFFAOYSA-L

>  <PUBCHEM_EXACT_MASS>  (1) 
139.909078

>  <PUBCHEM_MOLECULAR_FORMULA>  (1) 
AsHO4-2

>  <PUBCHEM_MOLECULAR_WEIGHT>  (1) 
139.927

>  <PUBCHEM_OPENEYE_CAN_SMILES>  (1) 
O[As](=O)([O-])[O-]

>  <PUBCHEM_OPENEYE_ISO_SMILES>  (1) 
O[As](=O)([O-])[O-]

>  <PUBCHEM_CACTVS_TPSA>  (1) 
83.4

>  <PUBCHEM_MONOISOTOPIC_WEIGHT>  (1) 
139.909078

>  <PUBCHEM_TOTAL_CHARGE>  (1) 
-2

>  <PUBCHEM_HEAVY_ATOM_COUNT>  (1) 
5

>  <PUBCHEM_ATOM_DEF_STEREO_COUNT>  (1) 
0

>  <PUBCHEM_ATOM_UDEF_STEREO_COUNT>  (1) 
0

>  <PUBCHEM_BOND_DEF_STEREO_COUNT>  (1) 
0

>  <PUBCHEM_BOND_UDEF_STEREO_COUNT>  (1) 
0

>  <PUBCHEM_ISOTOPIC_ATOM_COUNT>  (1) 
0

>  <PUBCHEM_COMPONENT_COUNT>  (1) 
1

>  <PUBCHEM_CACTVS_TAUTO_COUNT>  (1) 
-1

>  <PUBCHEM_COORDINATE_TYPE>  (1) 
1
5
255

$$$$
