24
     RDKit          2D

 22 23  0  0  1  0  0  0  0  0999 V2000
   -2.2396   -1.3607    0.0000 O   0  0  0  0  0  0  0  0  0  0  0  0
   -1.2551   -3.0987    0.0000 O   0  0  0  0  0  0  0  0  0  0  0  0
   -0.5780    2.1381    0.0000 O   0  0  0  0  0  0  0  0  0  0  0  0
   -1.8279    2.0417    0.0000 O   0  0  0  0  0  0  0  0  0  0  0  0
    1.7306   -3.3909    0.0000 O   0  0  0  0  0  0  0  0  0  0  0  0
   -3.9077   -1.2597    0.0000 O   0  0  0  0  0  0  0  0  0  0  0  0
    1.6167    3.1465    0.0000 O   0  0  0  0  0  0  0  0  0  0  0  0
   -6.0071    0.8833    0.0000 O   0  0  0  0  0  0  0  0  0  0  0  0
   -0.1292    0.7068    0.0000 N   0  0  0  0  0  0  0  0  0  0  0  0
    1.1107   -2.0250    0.0000 N   0  0  0  0  0  0  0  0  0  0  0  0
    3.4765   -0.9513    0.0000 N   0  0  0  0  0  0  0  0  0  0  0  0
    3.7295    1.6345    0.0000 N   0  0  0  0  0  0  0  0  0  0  0  0
    5.8423    0.1225    0.0000 N   0  0  0  0  0  0  0  0  0  0  0  0
   -1.0021   -0.5130    0.0000 C   0  0  0  0  0  0  0  0  0  0  0  0
    1.3637    0.5607    0.0000 C   0  0  0  0  0  0  0  0  0  0  0  0
   -0.3822   -1.8789    0.0000 C   0  0  0  0  0  0  0  0  0  0  0  0
    1.9836   -0.8052    0.0000 C   0  0  0  0  0  0  0  0  0  0  0  0
   -2.0518    0.5585    0.0000 C   0  0  0  0  0  0  0  0  0  0  0  0
   -3.5046    0.1852    0.0000 C   0  0  0  0  0  0  0  0  0  0  0  0
    2.2366    1.7805    0.0000 C   0  0  0  0  0  0  0  0  0  0  0  0
   -4.5543    1.2567    0.0000 C   0  0  0  0  0  0  0  0  0  0  0  0
    4.3494    0.2686    0.0000 C   0  0  0  0  0  0  0  0  0  0  0  0
  1 14  1  0
  2 16  1  0
  3  9  1  0
  4 18  1  0
  5 10  1  0
  6 19  1  0
  7 20  2  0
  8 21  1  0
  9 14  1  0
  9 15  1  0
 10 16  1  0
 10 17  1  0
 11 17  1  0
 11 22  2  0
 12 20  1  0
 12 22  1  0
 13 22  1  0
 14 16  1  0
 14 18  1  0
 15 17  1  0
 15 20  1  0
 18 19  1  0
 19 21  1  0
M  END
>  <PUBCHEM_COMPOUND_CID>  (1) 
24

>  <PUBCHEM_COMPOUND_CANONICALIZED>  (1) 
1

>  <PUBCHEM_CACTVS_COMPLEXITY>  (1) 
491

>  <PUBCHEM_CACTVS_HBOND_ACCEPTOR>  (1) 
11

>  <PUBCHEM_CACTVS_HBOND_DONOR>  (1) 
9

>  <PUBCHEM_CACTVS_ROTATABLE_BOND>  (1) 
3

>  <PUBCHEM_CACTVS_SUBSKEYS>  (1) 
AAADceBzvAAAAAAAAAAAAAAAAAAAAAAAAAAsQAAAAAAAAACAAAAAHgAUCAAACDzhgAYBAALQAgAoAAEQNAAAAAEAAAAhAAGIAACDUAoAyCAUQAAHEQKRAADwMAIAAAAAAAAAAAAAAAAAAAAAAAAAAAAAAA==

>  <PUBCHEM_IUPAC_OPENEYE_NAME>  (1) 
2-amino-5,6,7,8-tetrahydroxy-6-(1,2,3-trihydroxypropyl)-3,4a,7,8a-tetrahydropteridin-4-one

>  <PUBCHEM_IUPAC_CAS_NAME>  (1) 
2-amino-5,6,7,8-tetrahydroxy-6-(1,2,3-trihydroxypropyl)-3,4a,7,8a-tetrahydropteridin-4-one

>  <PUBCHEM_IUPAC_NAME_MARKUP>  (1) 
2-amino-5,6,7,8-tetrahydroxy-6-(1,2,3-trihydroxypropyl)-3,4<I>a</I>,7,8<I>a</I>-tetrahydropteridin-4-one

>  <PUBCHEM_IUPAC_NAME>  (1) 
2-amino-5,6,7,8-tetrahydroxy-6-(1,2,3-trihydroxypropyl)-3,4a,7,8a-tetrahydropteridin-4-one

>  <PUBCHEM_IUPAC_SYSTEMATIC_NAME>  (1) 
2-azanyl-5,6,7,8-tetrakis(oxidanyl)-6-[1,2,3-tris(oxidanyl)propyl]-3,4a,7,8a-tetrahydropteridin-4-one

>  <PUBCHEM_IUPAC_TRADITIONAL_NAME>  (1) 
2-amino-5,6,7,8-tetrahydroxy-6-(1,2,3-trihydroxypropyl)-3,4a,7,8a-tetrahydropteridin-4-one

>  <PUBCHEM_IUPAC_INCHI>  (1) 
InChI=1S/C9H17N5O8/c10-8-11-5-3(6(18)12-8)14(22)9(20,7(19)13(5)21)4(17)2(16)1-15/h2-5,7,15-17,19-22H,1H2,(H3,10,11,12,18)

>  <PUBCHEM_IUPAC_INCHIKEY>  (1) 
SQDFRPSZAQYREW-UHFFFAOYSA-N

>  <PUBCHEM_XLOGP3_AA>  (1) 
-4.5

>  <PUBCHEM_EXACT_MASS>  (1) 
323.107713

>  <PUBCHEM_MOLECULAR_FORMULA>  (1) 
C9H17N5O8

>  <PUBCHEM_MOLECULAR_WEIGHT>  (1) 
323.26

>  <PUBCHEM_OPENEYE_CAN_SMILES>  (1) 
C(C(C(C1(C(N(C2C(N1O)C(=O)NC(=N2)N)O)O)O)O)O)O

>  <PUBCHEM_OPENEYE_ISO_SMILES>  (1) 
C(C(C(C1(C(N(C2C(N1O)C(=O)NC(=N2)N)O)O)O)O)O)O

>  <PUBCHEM_CACTVS_TPSA>  (1) 
216

>  <PUBCHEM_MONOISOTOPIC_WEIGHT>  (1) 
323.107713

>  <PUBCHEM_TOTAL_CHARGE>  (1) 
0

>  <PUBCHEM_HEAVY_ATOM_COUNT>  (1) 
22

>  <PUBCHEM_ATOM_DEF_STEREO_COUNT>  (1) 
0

>  <PUBCHEM_ATOM_UDEF_STEREO_COUNT>  (1) 
6

>  <PUBCHEM_BOND_DEF_STEREO_COUNT>  (1) 
0

>  <PUBCHEM_BOND_UDEF_STEREO_COUNT>  (1) 
0

>  <PUBCHEM_ISOTOPIC_ATOM_COUNT>  (1) 
0

>  <PUBCHEM_COMPONENT_COUNT>  (1) 
1

>  <PUBCHEM_CACTVS_TAUTO_COUNT>  (1) 
-1

>  <PUBCHEM_COORDINATE_TYPE>  (1) 
1
5
255

>  <PUBCHEM_BONDANNOTATIONS>  (1) 
14  1  3
17  10  3
15  20  3
16  2  3
18  4  3
19  6  3

$$$$
