241
     RDKit          2D

  6  6  0  0  0  0  0  0  0  0999 V2000
    1.5000    0.0000    0.0000 C   0  0  0  0  0  0  0  0  0  0  0  0
    0.7500   -1.2990    0.0000 C   0  0  0  0  0  0  0  0  0  0  0  0
    0.7500    1.2990    0.0000 C   0  0  0  0  0  0  0  0  0  0  0  0
   -0.7500   -1.2990    0.0000 C   0  0  0  0  0  0  0  0  0  0  0  0
   -0.7500    1.2990    0.0000 C   0  0  0  0  0  0  0  0  0  0  0  0
   -1.5000    0.0000    0.0000 C   0  0  0  0  0  0  0  0  0  0  0  0
  1  2  2  0
  1  3  1  0
  2  4  1  0
  3  5  2  0
  4  6  2  0
  5  6  1  0
M  END
>  <PUBCHEM_COMPOUND_CID>  (1) 
241

>  <PUBCHEM_COMPOUND_CANONICALIZED>  (1) 
1

>  <PUBCHEM_CACTVS_COMPLEXITY>  (1) 
15.5

>  <PUBCHEM_CACTVS_HBOND_ACCEPTOR>  (1) 
0

>  <PUBCHEM_CACTVS_HBOND_DONOR>  (1) 
0

>  <PUBCHEM_CACTVS_ROTATABLE_BOND>  (1) 
0

>  <PUBCHEM_CACTVS_SUBSKEYS>  (1) 
AAADcYBgAAAAAAAAAAAAAAAAAAAAAAAAAAAwAAAAAAAAAAABAAAAGAAAAAAACACAEAAwAIAAAACAACBCAAACAAAgAAAIiAAAAIgIICKAERCAIAAggAAIiAcAAAAAAAAAAAAAAAAAAAAAAAAAAAAAAAAAAA==

>  <PUBCHEM_IUPAC_OPENEYE_NAME>  (1) 
benzene

>  <PUBCHEM_IUPAC_CAS_NAME>  (1) 
benzene

>  <PUBCHEM_IUPAC_NAME_MARKUP>  (1) 
benzene

>  <PUBCHEM_IUPAC_NAME>  (1) 
benzene

>  <PUBCHEM_IUPAC_SYSTEMATIC_NAME>  (1) 
benzene

>  <PUBCHEM_IUPAC_TRADITIONAL_NAME>  (1) 
benzene

>  <PUBCHEM_IUPAC_INCHI>  (1) 
InChI=1S/C6H6/c1-2-4-6-5-3-1/h1-6H

>  <PUBCHEM_IUPAC_INCHIKEY>  (1) 
UHOVQNZJYSORNB-UHFFFAOYSA-N

>  <PUBCHEM_XLOGP3>  (1) 
2.1

>  <PUBCHEM_EXACT_MASS>  (1) 
78.04695

>  <PUBCHEM_MOLECULAR_FORMULA>  (1) 
C6H6

>  <PUBCHEM_MOLECULAR_WEIGHT>  (1) 
78.11

>  <PUBCHEM_OPENEYE_CAN_SMILES>  (1) 
C1=CC=CC=C1

>  <PUBCHEM_OPENEYE_ISO_SMILES>  (1) 
C1=CC=CC=C1

>  <PUBCHEM_CACTVS_TPSA>  (1) 
0

>  <PUBCHEM_MONOISOTOPIC_WEIGHT>  (1) 
78.04695

>  <PUBCHEM_TOTAL_CHARGE>  (1) 
0

>  <PUBCHEM_HEAVY_ATOM_COUNT>  (1) 
6

>  <PUBCHEM_ATOM_DEF_STEREO_COUNT>  (1) 
0

>  <PUBCHEM_ATOM_UDEF_STEREO_COUNT>  (1) 
0

>  <PUBCHEM_BOND_DEF_STEREO_COUNT>  (1) 
0

>  <PUBCHEM_BOND_UDEF_STEREO_COUNT>  (1) 
0

>  <PUBCHEM_ISOTOPIC_ATOM_COUNT>  (1) 
0

>  <PUBCHEM_COMPONENT_COUNT>  (1) 
1

>  <PUBCHEM_CACTVS_TAUTO_COUNT>  (1) 
-1

>  <PUBCHEM_COORDINATE_TYPE>  (1) 
1
5
255

>  <PUBCHEM_BONDANNOTATIONS>  (1) 
1  2  8
1  3  8
2  4  8
3  5  8
4  6  8
5  6  8

$$$$
