243
     RDKit          2D

  9  9  0  0  0  0  0  0  0  0999 V2000
    2.5833   -1.2990    0.0000 O   0  0  0  0  0  0  0  0  0  0  0  0
    2.5833    1.2990    0.0000 O   0  0  0  0  0  0  0  0  0  0  0  0
    0.3333   -0.0000    0.0000 C   0  0  0  0  0  0  0  0  0  0  0  0
   -0.4167   -1.2990    0.0000 C   0  0  0  0  0  0  0  0  0  0  0  0
   -0.4167    1.2990    0.0000 C   0  0  0  0  0  0  0  0  0  0  0  0
   -1.9167   -1.2990    0.0000 C   0  0  0  0  0  0  0  0  0  0  0  0
   -1.9167    1.2990    0.0000 C   0  0  0  0  0  0  0  0  0  0  0  0
   -2.6667    0.0000    0.0000 C   0  0  0  0  0  0  0  0  0  0  0  0
    1.8333    0.0000    0.0000 C   0  0  0  0  0  0  0  0  0  0  0  0
  1  9  1  0
  2  9  2  0
  3  4  2  0
  3  5  1  0
  3  9  1  0
  4  6  1  0
  5  7  2  0
  6  8  2  0
  7  8  1  0
M  END
>  <PUBCHEM_COMPOUND_CID>  (1) 
243

>  <PUBCHEM_COMPOUND_CANONICALIZED>  (1) 
1

>  <PUBCHEM_CACTVS_COMPLEXITY>  (1) 
104

>  <PUBCHEM_CACTVS_HBOND_ACCEPTOR>  (1) 
2

>  <PUBCHEM_CACTVS_HBOND_DONOR>  (1) 
1

>  <PUBCHEM_CACTVS_ROTATABLE_BOND>  (1) 
1

>  <PUBCHEM_CACTVS_SUBSKEYS>  (1) 
AAADcYBgMAAAAAAAAAAAAAAAAAAAAAAAAAAwAAAAAAAAAAABAAAAGgAACAAADACAmAAwCIAAAgCIAiDSCAACAAAkAAAIiAEACMgIJjKAFRCAcQAkwAEImYeIyCCOAAAAAAAAAAAAAAAAAAAAAAAAAAAAAA==

>  <PUBCHEM_IUPAC_OPENEYE_NAME>  (1) 
benzoic acid

>  <PUBCHEM_IUPAC_CAS_NAME>  (1) 
benzoic acid

>  <PUBCHEM_IUPAC_NAME_MARKUP>  (1) 
benzoic acid

>  <PUBCHEM_IUPAC_NAME>  (1) 
benzoic acid

>  <PUBCHEM_IUPAC_SYSTEMATIC_NAME>  (1) 
benzoic acid

>  <PUBCHEM_IUPAC_TRADITIONAL_NAME>  (1) 
benzoic acid

>  <PUBCHEM_IUPAC_INCHI>  (1) 
InChI=1S/C7H6O2/c8-7(9)6-4-2-1-3-5-6/h1-5H,(H,8,9)

>  <PUBCHEM_IUPAC_INCHIKEY>  (1) 
WPYMKLBDIGXBTP-UHFFFAOYSA-N

>  <PUBCHEM_XLOGP3>  (1) 
1.9

>  <PUBCHEM_EXACT_MASS>  (1) 
122.036779

>  <PUBCHEM_MOLECULAR_FORMULA>  (1) 
C7H6O2

>  <PUBCHEM_MOLECULAR_WEIGHT>  (1) 
122.12

>  <PUBCHEM_OPENEYE_CAN_SMILES>  (1) 
C1=CC=C(C=C1)C(=O)O

>  <PUBCHEM_OPENEYE_ISO_SMILES>  (1) 
C1=CC=C(C=C1)C(=O)O

>  <PUBCHEM_CACTVS_TPSA>  (1) 
37.3

>  <PUBCHEM_MONOISOTOPIC_WEIGHT>  (1) 
122.036779

>  <PUBCHEM_TOTAL_CHARGE>  (1) 
0

>  <PUBCHEM_HEAVY_ATOM_COUNT>  (1) 
9

>  <PUBCHEM_ATOM_DEF_STEREO_COUNT>  (1) 
0

>  <PUBCHEM_ATOM_UDEF_STEREO_COUNT>  (1) 
0

>  <PUBCHEM_BOND_DEF_STEREO_COUNT>  (1) 
0

>  <PUBCHEM_BOND_UDEF_STEREO_COUNT>  (1) 
0

>  <PUBCHEM_ISOTOPIC_ATOM_COUNT>  (1) 
0

>  <PUBCHEM_COMPONENT_COUNT>  (1) 
1

>  <PUBCHEM_CACTVS_TAUTO_COUNT>  (1) 
-1

>  <PUBCHEM_COORDINATE_TYPE>  (1) 
1
5
255

>  <PUBCHEM_BONDANNOTATIONS>  (1) 
3  4  8
3  5  8
4  6  8
5  7  8
6  8  8
7  8  8

$$$$
