245
     RDKit          2D

 26 27  0  0  1  0  0  0  0  0999 V2000
   -0.8903   -1.8370    0.0000 O   0  0  0  0  0  0  0  0  0  0  0  0
    3.0527   -2.2875    0.0000 O   0  0  0  0  0  0  0  0  0  0  0  0
   -1.4565    0.6986    0.0000 O   0  0  0  0  0  0  0  0  0  0  0  0
    0.0074    1.0255    0.0000 O   0  0  0  0  0  0  0  0  0  0  0  0
   -3.8181   -2.4908    0.0000 O   0  0  0  0  0  0  0  0  0  0  0  0
   -5.8483   -0.2821    0.0000 O   0  0  0  0  0  0  0  0  0  0  0  0
   -4.9506    2.5804    0.0000 O   0  0  0  0  0  0  0  0  0  0  0  0
    4.9655   -0.5293    0.0000 O   0  0  0  0  0  0  0  0  0  0  0  0
   -0.3240   -4.3726    0.0000 O   0  0  0  0  0  0  0  0  0  0  0  0
   -0.5588    3.5612    0.0000 O   0  0  0  0  0  0  0  0  0  0  0  0
    5.4144    0.9019    0.0000 O   0  0  0  0  0  0  0  0  0  0  0  0
    2.9353    1.6794    0.0000 N   0  0  0  0  0  0  0  0  0  0  0  0
    0.5737   -1.5101    0.0000 C   0  0  0  0  0  0  0  0  0  0  0  0
    1.0225   -0.0788    0.0000 C   0  0  0  0  0  0  0  0  0  0  0  0
    2.4865    0.2481    0.0000 C   0  0  0  0  0  0  0  0  0  0  0  0
    1.5888   -2.6144    0.0000 C   0  0  0  0  0  0  0  0  0  0  0  0
   -1.9054   -0.7327    0.0000 C   0  0  0  0  0  0  0  0  0  0  0  0
   -3.3693   -1.0596    0.0000 C   0  0  0  0  0  0  0  0  0  0  0  0
   -4.3844    0.0448    0.0000 C   0  0  0  0  0  0  0  0  0  0  0  0
   -3.9355    1.4761    0.0000 C   0  0  0  0  0  0  0  0  0  0  0  0
    3.5016   -0.8563    0.0000 C   0  0  0  0  0  0  0  0  0  0  0  0
   -2.4716    1.8030    0.0000 C   0  0  0  0  0  0  0  0  0  0  0  0
    1.1399   -4.0457    0.0000 C   0  0  0  0  0  0  0  0  0  0  0  0
   -2.0227    3.2342    0.0000 C   0  0  0  0  0  0  0  0  0  0  0  0
    4.3993    2.0063    0.0000 C   0  0  0  0  0  0  0  0  0  0  0  0
    4.8481    3.4376    0.0000 C   0  0  0  0  0  0  0  0  0  0  0  0
  1 13  1  0
  1 17  1  0
  2 16  1  0
  2 21  1  0
  3 17  1  0
  3 22  1  0
  4 14  1  0
  5 18  1  0
  6 19  1  0
  7 20  1  0
  8 21  1  0
  9 23  1  0
 10 24  1  0
 11 25  2  0
 12 15  1  0
 12 25  1  0
 13 14  1  0
 13 16  1  0
 14 15  1  0
 15 21  1  0
 16 23  1  0
 17 18  1  0
 18 19  1  0
 19 20  1  0
 20 22  1  0
 22 24  1  0
 25 26  1  0
M  END
>  <PUBCHEM_COMPOUND_CID>  (1) 
245

>  <PUBCHEM_COMPOUND_CANONICALIZED>  (1) 
1

>  <PUBCHEM_CACTVS_COMPLEXITY>  (1) 
480

>  <PUBCHEM_CACTVS_HBOND_ACCEPTOR>  (1) 
11

>  <PUBCHEM_CACTVS_HBOND_DONOR>  (1) 
8

>  <PUBCHEM_CACTVS_ROTATABLE_BOND>  (1) 
5

>  <PUBCHEM_CACTVS_SUBSKEYS>  (1) 
AAADceByPAAAAAAAAAAAAAAAAAAAAAAAAAAkSAAAAAAAAAAAAAAAHgAQCAAACDzxgAcCCALABgAIAAEQEAAAAAAAAAAAAIAIAAATEAIAgAAnQAAHFgCXAAHwcA8AAAAAAAAAAAAAAAAAAAAAAAAAAAAAAA==

>  <PUBCHEM_IUPAC_OPENEYE_NAME>  (1) 
N-[2,4-dihydroxy-6-(hydroxymethyl)-5-[3,4,5-trihydroxy-6-(hydroxymethyl)tetrahydropyran-2-yl]oxy-tetrahydropyran-3-yl]acetamide

>  <PUBCHEM_IUPAC_CAS_NAME>  (1) 
N-[2,4-dihydroxy-6-(hydroxymethyl)-5-[[3,4,5-trihydroxy-6-(hydroxymethyl)-2-oxanyl]oxy]-3-oxanyl]acetamide

>  <PUBCHEM_IUPAC_NAME_MARKUP>  (1) 
<I>N</I>-[2,4-dihydroxy-6-(hydroxymethyl)-5-[3,4,5-trihydroxy-6-(hydroxymethyl)oxan-2-yl]oxyoxan-3-yl]acetamide

>  <PUBCHEM_IUPAC_NAME>  (1) 
N-[2,4-dihydroxy-6-(hydroxymethyl)-5-[3,4,5-trihydroxy-6-(hydroxymethyl)oxan-2-yl]oxyoxan-3-yl]acetamide

>  <PUBCHEM_IUPAC_SYSTEMATIC_NAME>  (1) 
N-[6-(hydroxymethyl)-5-[6-(hydroxymethyl)-3,4,5-tris(oxidanyl)oxan-2-yl]oxy-2,4-bis(oxidanyl)oxan-3-yl]ethanamide

>  <PUBCHEM_IUPAC_TRADITIONAL_NAME>  (1) 
N-[2,4-dihydroxy-6-methylol-5-(3,4,5-trihydroxy-6-methylol-tetrahydropyran-2-yl)oxy-tetrahydropyran-3-yl]acetamide

>  <PUBCHEM_IUPAC_INCHI>  (1) 
InChI=1S/C14H25NO11/c1-4(18)15-7-9(20)12(6(3-17)24-13(7)23)26-14-11(22)10(21)8(19)5(2-16)25-14/h5-14,16-17,19-23H,2-3H2,1H3,(H,15,18)

>  <PUBCHEM_IUPAC_INCHIKEY>  (1) 
KFEUJDWYNGMDBV-UHFFFAOYSA-N

>  <PUBCHEM_XLOGP3_AA>  (1) 
-4.7

>  <PUBCHEM_EXACT_MASS>  (1) 
383.142761

>  <PUBCHEM_MOLECULAR_FORMULA>  (1) 
C14H25NO11

>  <PUBCHEM_MOLECULAR_WEIGHT>  (1) 
383.35

>  <PUBCHEM_OPENEYE_CAN_SMILES>  (1) 
CC(=O)NC1C(C(C(OC1O)CO)OC2C(C(C(C(O2)CO)O)O)O)O

>  <PUBCHEM_OPENEYE_ISO_SMILES>  (1) 
CC(=O)NC1C(C(C(OC1O)CO)OC2C(C(C(C(O2)CO)O)O)O)O

>  <PUBCHEM_CACTVS_TPSA>  (1) 
198

>  <PUBCHEM_MONOISOTOPIC_WEIGHT>  (1) 
383.142761

>  <PUBCHEM_TOTAL_CHARGE>  (1) 
0

>  <PUBCHEM_HEAVY_ATOM_COUNT>  (1) 
26

>  <PUBCHEM_ATOM_DEF_STEREO_COUNT>  (1) 
0

>  <PUBCHEM_ATOM_UDEF_STEREO_COUNT>  (1) 
10

>  <PUBCHEM_BOND_DEF_STEREO_COUNT>  (1) 
0

>  <PUBCHEM_BOND_UDEF_STEREO_COUNT>  (1) 
0

>  <PUBCHEM_ISOTOPIC_ATOM_COUNT>  (1) 
0

>  <PUBCHEM_COMPONENT_COUNT>  (1) 
1

>  <PUBCHEM_CACTVS_TAUTO_COUNT>  (1) 
-1

>  <PUBCHEM_COORDINATE_TYPE>  (1) 
1
5
255

>  <PUBCHEM_BONDANNOTATIONS>  (1) 
13  1  3
17  1  3
15  12  3
16  23  3
22  24  3
14  4  3
18  5  3
19  6  3
20  7  3
21  8  3

$$$$
