255
     RDKit          2D

 23 24  0  0  0  0  0  0  0  0999 V2000
    0.0000   -2.8240    0.0000 P   0  0  0  0  0  0  0  0  0  0  0  0
    1.5000   -2.8240    0.0000 O   0  0  0  0  0  0  0  0  0  0  0  0
   -1.5000   -2.8240    0.0000 O   0  0  0  0  0  0  0  0  0  0  0  0
    0.0000   -4.3240    0.0000 O   0  0  0  0  0  0  0  0  0  0  0  0
   -0.0000   -1.3240    0.0000 O   0  0  0  0  0  0  0  0  0  0  0  0
    6.0000    2.3722    0.0000 O   0  0  0  0  0  0  0  0  0  0  0  0
   -3.7500    3.6712    0.0000 O   0  0  0  0  0  0  0  0  0  0  0  0
    3.7500    3.6712    0.0000 O   0  0  0  0  0  0  0  0  0  0  0  0
   -6.0000    2.3722    0.0000 O   0  0  0  0  0  0  0  0  0  0  0  0
    4.5000    2.3722    0.0000 N   0  0  0  0  0  0  0  0  0  0  0  0
   -4.5000    2.3722    0.0000 N   0  0  0  0  0  0  0  0  0  0  0  0
    2.2500   -1.5250    0.0000 C   0  0  0  0  0  0  0  0  0  0  0  0
   -2.2500   -1.5250    0.0000 C   0  0  0  0  0  0  0  0  0  0  0  0
    3.7500   -1.5250    0.0000 C   0  0  0  0  0  0  0  0  0  0  0  0
   -1.5000   -0.2259    0.0000 C   0  0  0  0  0  0  0  0  0  0  0  0
    1.5000   -0.2259    0.0000 C   0  0  0  0  0  0  0  0  0  0  0  0
   -3.7500   -1.5250    0.0000 C   0  0  0  0  0  0  0  0  0  0  0  0
    3.7500    1.0731    0.0000 C   0  0  0  0  0  0  0  0  0  0  0  0
   -3.7500    1.0731    0.0000 C   0  0  0  0  0  0  0  0  0  0  0  0
    4.5000   -0.2259    0.0000 C   0  0  0  0  0  0  0  0  0  0  0  0
   -2.2500    1.0731    0.0000 C   0  0  0  0  0  0  0  0  0  0  0  0
    2.2500    1.0731    0.0000 C   0  0  0  0  0  0  0  0  0  0  0  0
   -4.5000   -0.2259    0.0000 C   0  0  0  0  0  0  0  0  0  0  0  0
  1  2  1  0
  1  3  1  0
  1  4  1  0
  1  5  2  0
  2 12  1  0
  3 13  1  0
  6 10  1  0
  7 11  1  0
  8 10  2  0
  9 11  2  0
 10 18  1  0
 11 19  1  0
 12 14  2  0
 12 16  1  0
 13 15  2  0
 13 17  1  0
 14 20  1  0
 15 21  1  0
 16 22  2  0
 17 23  2  0
 18 20  2  0
 18 22  1  0
 19 21  2  0
 19 23  1  0
M  CHG  4   6  -1   7  -1  10   1  11   1
M  END
>  <PUBCHEM_COMPOUND_CID>  (1) 
255

>  <PUBCHEM_COMPOUND_CANONICALIZED>  (1) 
1

>  <PUBCHEM_CACTVS_COMPLEXITY>  (1) 
434

>  <PUBCHEM_CACTVS_HBOND_ACCEPTOR>  (1) 
8

>  <PUBCHEM_CACTVS_HBOND_DONOR>  (1) 
1

>  <PUBCHEM_CACTVS_ROTATABLE_BOND>  (1) 
4

>  <PUBCHEM_CACTVS_SUBSKEYS>  (1) 
AAADccBzPAIAAAAAAAAAAAAAAAAAAAAAAAAwYAAAAAAAAAABQAAAHgAECCAACAyBkAAwxoAQQRCBQCRCQ4CCAAAgIgAoiAAGbIoIJiKAkZOAMABkwBEIyAewQAAAAEAAAAAAAAAAgAAAAAAAAAAAAAAAAA==

>  <PUBCHEM_IUPAC_OPENEYE_NAME>  (1) 
bis(4-nitrophenyl) hydrogen phosphate

>  <PUBCHEM_IUPAC_CAS_NAME>  (1) 
bis(4-nitrophenyl) hydrogen phosphate

>  <PUBCHEM_IUPAC_NAME_MARKUP>  (1) 
bis(4-nitrophenyl) hydrogen phosphate

>  <PUBCHEM_IUPAC_NAME>  (1) 
bis(4-nitrophenyl) hydrogen phosphate

>  <PUBCHEM_IUPAC_SYSTEMATIC_NAME>  (1) 
bis(4-nitrophenyl) hydrogen phosphate

>  <PUBCHEM_IUPAC_TRADITIONAL_NAME>  (1) 
bis(4-nitrophenyl) hydrogen phosphate

>  <PUBCHEM_IUPAC_INCHI>  (1) 
InChI=1S/C12H9N2O8P/c15-13(16)9-1-5-11(6-2-9)21-23(19,20)22-12-7-3-10(4-8-12)14(17)18/h1-8H,(H,19,20)

>  <PUBCHEM_IUPAC_INCHIKEY>  (1) 
MHSVUSZEHNVFKW-UHFFFAOYSA-N

>  <PUBCHEM_XLOGP3>  (1) 
1

>  <PUBCHEM_EXACT_MASS>  (1) 
340.009652

>  <PUBCHEM_MOLECULAR_FORMULA>  (1) 
C12H9N2O8P

>  <PUBCHEM_MOLECULAR_WEIGHT>  (1) 
340.18

>  <PUBCHEM_OPENEYE_CAN_SMILES>  (1) 
C1=CC(=CC=C1[N+](=O)[O-])OP(=O)(O)OC2=CC=C(C=C2)[N+](=O)[O-]

>  <PUBCHEM_OPENEYE_ISO_SMILES>  (1) 
C1=CC(=CC=C1[N+](=O)[O-])OP(=O)(O)OC2=CC=C(C=C2)[N+](=O)[O-]

>  <PUBCHEM_CACTVS_TPSA>  (1) 
147

>  <PUBCHEM_MONOISOTOPIC_WEIGHT>  (1) 
340.009652

>  <PUBCHEM_TOTAL_CHARGE>  (1) 
0

>  <PUBCHEM_HEAVY_ATOM_COUNT>  (1) 
23

>  <PUBCHEM_ATOM_DEF_STEREO_COUNT>  (1) 
0

>  <PUBCHEM_ATOM_UDEF_STEREO_COUNT>  (1) 
0

>  <PUBCHEM_BOND_DEF_STEREO_COUNT>  (1) 
0

>  <PUBCHEM_BOND_UDEF_STEREO_COUNT>  (1) 
0

>  <PUBCHEM_ISOTOPIC_ATOM_COUNT>  (1) 
0

>  <PUBCHEM_COMPONENT_COUNT>  (1) 
1

>  <PUBCHEM_CACTVS_TAUTO_COUNT>  (1) 
-1

>  <PUBCHEM_COORDINATE_TYPE>  (1) 
1
5
255

>  <PUBCHEM_BONDANNOTATIONS>  (1) 
12  14  8
12  16  8
13  15  8
13  17  8
14  20  8
15  21  8
16  22  8
17  23  8
18  20  8
18  22  8
19  21  8
19  23  8

$$$$
