256
     RDKit          2D

 91 92  0  0  1  0  0  0  0  0999 V2000
    1.7048   -1.1090    0.0000 P   0  0  0  0  0  0  0  0  0  0  0  0
    1.5055    1.8844    0.0000 O   0  0  0  0  0  0  0  0  0  0  0  0
   -2.6320    5.3673    0.0000 O   0  0  0  0  0  0  0  0  0  0  0  0
   -1.1864    3.2085    0.0000 O   0  0  0  0  0  0  0  0  0  0  0  0
    5.2446    4.3882    0.0000 O   0  0  0  0  0  0  0  0  0  0  0  0
   -6.3711    2.8634    0.0000 O   0  0  0  0  0  0  0  0  0  0  0  0
    2.5527    5.7124    0.0000 O   0  0  0  0  0  0  0  0  0  0  0  0
    2.9511   -0.2744    0.0000 O   0  0  0  0  0  0  0  0  0  0  0  0
   -6.5703    5.8568    0.0000 O   0  0  0  0  0  0  0  0  0  0  0  0
   -2.8312    8.3607    0.0000 O   0  0  0  0  0  0  0  0  0  0  0  0
   -6.2715    1.3667    0.0000 O   0  0  0  0  0  0  0  0  0  0  0  0
    4.2971   -0.9365    0.0000 O   0  0  0  0  0  0  0  0  0  0  0  0
    6.6902    2.2294    0.0000 O   0  0  0  0  0  0  0  0  0  0  0  0
   -7.8167    5.0222    0.0000 O   0  0  0  0  0  0  0  0  0  0  0  0
    0.8702    0.1373    0.0000 O   0  0  0  0  0  0  0  0  0  0  0  0
    0.4584   -1.9436    0.0000 O   0  0  0  0  0  0  0  0  0  0  0  0
   -7.4182   -0.9646    0.0000 O   0  0  0  0  0  0  0  0  0  0  0  0
    5.7427   -3.0952    0.0000 O   0  0  0  0  0  0  0  0  0  0  0  0
    2.5394   -2.3554    0.0000 O   0  0  0  0  0  0  0  0  0  0  0  0
    9.2826    2.4020    0.0000 O   0  0  0  0  0  0  0  0  0  0  0  0
  -10.4090    4.8497    0.0000 O   0  0  0  0  0  0  0  0  0  0  0  0
   -3.6791    1.5393    0.0000 N   0  0  0  0  0  0  0  0  0  0  0  0
    5.4439    1.3948    0.0000 N   0  0  0  0  0  0  0  0  0  0  0  0
   -3.7787    3.0360    0.0000 C   0  0  0  0  0  0  0  0  0  0  0  0
    1.4059    3.3811    0.0000 C   0  0  0  0  0  0  0  0  0  0  0  0
    3.9983    3.5536    0.0000 C   0  0  0  0  0  0  0  0  0  0  0  0
    2.6523    4.2157    0.0000 C   0  0  0  0  0  0  0  0  0  0  0  0
   -5.1247    3.6981    0.0000 C   0  0  0  0  0  0  0  0  0  0  0  0
    4.0979    2.0569    0.0000 C   0  0  0  0  0  0  0  0  0  0  0  0
   -2.5324    3.8706    0.0000 C   0  0  0  0  0  0  0  0  0  0  0  0
   -5.2243    5.1947    0.0000 C   0  0  0  0  0  0  0  0  0  0  0  0
   -3.9780    6.0294    0.0000 C   0  0  0  0  0  0  0  0  0  0  0  0
    2.8515    1.2223    0.0000 C   0  0  0  0  0  0  0  0  0  0  0  0
    0.0600    4.0431    0.0000 C   0  0  0  0  0  0  0  0  0  0  0  0
   -4.0776    7.5260    0.0000 C   0  0  0  0  0  0  0  0  0  0  0  0
   -4.9255    0.7047    0.0000 C   0  0  0  0  0  0  0  0  0  0  0  0
    5.5435   -0.1019    0.0000 C   0  0  0  0  0  0  0  0  0  0  0  0
    6.5906    3.7261    0.0000 C   0  0  0  0  0  0  0  0  0  0  0  0
   -7.7171    3.5255    0.0000 C   0  0  0  0  0  0  0  0  0  0  0  0
   -4.8259   -0.7920    0.0000 C   0  0  0  0  0  0  0  0  0  0  0  0
    6.8895   -0.7639    0.0000 C   0  0  0  0  0  0  0  0  0  0  0  0
    7.8370    4.5607    0.0000 C   0  0  0  0  0  0  0  0  0  0  0  0
   -6.0722   -1.6266    0.0000 C   0  0  0  0  0  0  0  0  0  0  0  0
   -8.9634    2.6909    0.0000 C   0  0  0  0  0  0  0  0  0  0  0  0
    6.9891   -2.2606    0.0000 C   0  0  0  0  0  0  0  0  0  0  0  0
    9.1830    3.8987    0.0000 C   0  0  0  0  0  0  0  0  0  0  0  0
  -10.3094    3.3530    0.0000 C   0  0  0  0  0  0  0  0  0  0  0  0
   -5.9726   -3.1233    0.0000 C   0  0  0  0  0  0  0  0  0  0  0  0
    8.3351   -2.9227    0.0000 C   0  0  0  0  0  0  0  0  0  0  0  0
   10.4293    4.7333    0.0000 C   0  0  0  0  0  0  0  0  0  0  0  0
  -11.5558    2.5184    0.0000 C   0  0  0  0  0  0  0  0  0  0  0  0
   -7.2190   -3.9579    0.0000 C   0  0  0  0  0  0  0  0  0  0  0  0
    8.4347   -4.4194    0.0000 C   0  0  0  0  0  0  0  0  0  0  0  0
   11.7753    4.0712    0.0000 C   0  0  0  0  0  0  0  0  0  0  0  0
  -12.9017    3.1804    0.0000 C   0  0  0  0  0  0  0  0  0  0  0  0
   -7.1194   -5.4546    0.0000 C   0  0  0  0  0  0  0  0  0  0  0  0
    9.7806   -5.0815    0.0000 C   0  0  0  0  0  0  0  0  0  0  0  0
   13.0217    4.9058    0.0000 C   0  0  0  0  0  0  0  0  0  0  0  0
  -14.1481    2.3458    0.0000 C   0  0  0  0  0  0  0  0  0  0  0  0
   -8.3657   -6.2892    0.0000 C   0  0  0  0  0  0  0  0  0  0  0  0
    9.8803   -6.5782    0.0000 C   0  0  0  0  0  0  0  0  0  0  0  0
   14.3676    4.2437    0.0000 C   0  0  0  0  0  0  0  0  0  0  0  0
  -15.4941    3.0079    0.0000 C   0  0  0  0  0  0  0  0  0  0  0  0
   -8.2661   -7.7859    0.0000 C   0  0  0  0  0  0  0  0  0  0  0  0
   11.2262   -7.2402    0.0000 C   0  0  0  0  0  0  0  0  0  0  0  0
   15.6140    5.0784    0.0000 C   0  0  0  0  0  0  0  0  0  0  0  0
  -16.7405    2.1733    0.0000 C   0  0  0  0  0  0  0  0  0  0  0  0
   -9.5125   -8.6205    0.0000 C   0  0  0  0  0  0  0  0  0  0  0  0
   11.3259   -8.7369    0.0000 C   0  0  0  0  0  0  0  0  0  0  0  0
   16.9600    4.4163    0.0000 C   0  0  0  0  0  0  0  0  0  0  0  0
  -18.0864    2.8354    0.0000 C   0  0  0  0  0  0  0  0  0  0  0  0
   -9.4129  -10.1172    0.0000 C   0  0  0  0  0  0  0  0  0  0  0  0
   12.6718   -9.3990    0.0000 C   0  0  0  0  0  0  0  0  0  0  0  0
   18.2063    5.2509    0.0000 C   0  0  0  0  0  0  0  0  0  0  0  0
  -19.3328    2.0008    0.0000 C   0  0  0  0  0  0  0  0  0  0  0  0
  -10.6592  -10.9518    0.0000 C   0  0  0  0  0  0  0  0  0  0  0  0
   12.7714  -10.8957    0.0000 C   0  0  0  0  0  0  0  0  0  0  0  0
   19.5523    4.5888    0.0000 C   0  0  0  0  0  0  0  0  0  0  0  0
  -20.6788    2.6628    0.0000 C   0  0  0  0  0  0  0  0  0  0  0  0
  -10.5596  -12.4485    0.0000 C   0  0  0  0  0  0  0  0  0  0  0  0
   14.1174  -11.5578    0.0000 C   0  0  0  0  0  0  0  0  0  0  0  0
   20.7987    5.4234    0.0000 C   0  0  0  0  0  0  0  0  0  0  0  0
  -21.9251    1.8282    0.0000 C   0  0  0  0  0  0  0  0  0  0  0  0
  -11.8060  -13.2831    0.0000 C   0  0  0  0  0  0  0  0  0  0  0  0
   14.2170  -13.0544    0.0000 C   0  0  0  0  0  0  0  0  0  0  0  0
   22.1447    4.7614    0.0000 C   0  0  0  0  0  0  0  0  0  0  0  0
  -23.2711    2.4903    0.0000 C   0  0  0  0  0  0  0  0  0  0  0  0
  -11.7064  -14.7798    0.0000 C   0  0  0  0  0  0  0  0  0  0  0  0
   15.5630  -13.7165    0.0000 C   0  0  0  0  0  0  0  0  0  0  0  0
   23.3910    5.5960    0.0000 C   0  0  0  0  0  0  0  0  0  0  0  0
  -24.5175    1.6557    0.0000 C   0  0  0  0  0  0  0  0  0  0  0  0
  1  8  1  0
  1 15  1  0
  1 16  1  0
  1 19  2  0
  2 25  1  0
  2 33  1  0
  3 30  1  0
  3 32  1  0
  4 30  1  0
  4 34  1  0
  5 26  1  0
  5 38  1  0
  6 28  1  0
  6 39  1  0
  7 27  1  0
  8 33  1  0
  9 31  1  0
 10 35  1  0
 11 36  2  0
 12 37  2  0
 13 38  2  0
 14 39  2  0
 17 43  1  0
 18 45  1  0
 20 46  1  0
 21 47  1  0
 22 24  1  0
 22 36  1  0
 23 29  1  0
 23 37  1  0
 24 28  1  0
 24 30  1  0
 25 27  1  0
 25 34  1  0
 26 27  1  0
 26 29  1  0
 28 31  1  0
 29 33  1  0
 31 32  1  0
 32 35  1  0
 36 40  1  0
 37 41  1  0
 38 42  1  0
 39 44  1  0
 40 43  1  0
 41 45  1  0
 42 46  1  0
 43 48  1  0
 44 47  1  0
 45 49  1  0
 46 50  1  0
 47 51  1  0
 48 52  1  0
 49 53  1  0
 50 54  1  0
 51 55  1  0
 52 56  1  0
 53 57  1  0
 54 58  1  0
 55 59  1  0
 56 60  1  0
 57 61  1  0
 58 62  1  0
 59 63  1  0
 60 64  1  0
 61 65  1  0
 62 66  1  0
 63 67  1  0
 64 68  1  0
 65 69  1  0
 66 70  1  0
 67 71  1  0
 68 72  1  0
 69 73  1  0
 70 74  1  0
 71 75  1  0
 72 76  1  0
 73 77  1  0
 74 78  1  0
 75 79  1  0
 76 80  1  0
 77 81  1  0
 78 82  1  0
 79 83  1  0
 80 84  1  0
 81 85  1  0
 82 86  1  0
 83 87  1  0
 84 88  1  0
 85 89  1  0
 86 90  1  0
 87 91  1  0
M  END
>  <PUBCHEM_COMPOUND_CID>  (1) 
256

>  <PUBCHEM_COMPOUND_CANONICALIZED>  (1) 
1

>  <PUBCHEM_CACTVS_COMPLEXITY>  (1) 
1890

>  <PUBCHEM_CACTVS_HBOND_ACCEPTOR>  (1) 
20

>  <PUBCHEM_CACTVS_HBOND_DONOR>  (1) 
11

>  <PUBCHEM_CACTVS_ROTATABLE_BOND>  (1) 
60

>  <PUBCHEM_CACTVS_SUBSKEYS>  (1) 
AAADcfB/PgIAAAAAAAAAAAAAAAAAAAAAAAAkSAAAAAAAAAAAAAAAHgAQCCAACDzxgAcCCALABxAIQAGQGIAAAAAAAAAAAIEIAAATEBYAgAAnQAAHNgCXAAH4+K+AAAAAAAAAAAAAAAAAAAAAAAAAAAAAAA==

>  <PUBCHEM_IUPAC_OPENEYE_NAME>  (1) 
[5-hydroxy-2-[[3-hydroxy-5-(3-hydroxytetradecanoylamino)-4-(3-hydroxytetradecanoyloxy)-6-phosphonooxy-tetrahydropyran-2-yl]methoxy]-6-(hydroxymethyl)-3-(3-hydroxytetradecanoylamino)tetrahydropyran-4-yl] 3-hydroxytetradecanoate

>  <PUBCHEM_IUPAC_CAS_NAME>  (1) 
3-hydroxytetradecanoic acid [5-hydroxy-2-[[3-hydroxy-4-(3-hydroxy-1-oxotetradecoxy)-5-[(3-hydroxy-1-oxotetradecyl)amino]-6-phosphonooxy-2-oxanyl]methoxy]-6-(hydroxymethyl)-3-[(3-hydroxy-1-oxotetradecyl)amino]-4-oxanyl] ester

>  <PUBCHEM_IUPAC_NAME_MARKUP>  (1) 
[5-hydroxy-2-[[3-hydroxy-5-(3-hydroxytetradecanoylamino)-4-(3-hydroxytetradecanoyloxy)-6-phosphonooxyoxan-2-yl]methoxy]-6-(hydroxymethyl)-3-(3-hydroxytetradecanoylamino)oxan-4-yl] 3-hydroxytetradecanoate

>  <PUBCHEM_IUPAC_NAME>  (1) 
[5-hydroxy-2-[[3-hydroxy-5-(3-hydroxytetradecanoylamino)-4-(3-hydroxytetradecanoyloxy)-6-phosphonooxyoxan-2-yl]methoxy]-6-(hydroxymethyl)-3-(3-hydroxytetradecanoylamino)oxan-4-yl] 3-hydroxytetradecanoate

>  <PUBCHEM_IUPAC_SYSTEMATIC_NAME>  (1) 
[2-(hydroxymethyl)-3-oxidanyl-6-[[3-oxidanyl-5-(3-oxidanyltetradecanoylamino)-4-(3-oxidanyltetradecanoyloxy)-6-phosphonooxy-oxan-2-yl]methoxy]-5-(3-oxidanyltetradecanoylamino)oxan-4-yl] 3-oxidanyltetradecanoate

>  <PUBCHEM_IUPAC_TRADITIONAL_NAME>  (1) 
3-hydroxymyristic acid [5-hydroxy-2-[[3-hydroxy-5-(3-hydroxytetradecanoylamino)-4-(3-hydroxytetradecanoyloxy)-6-phosphonooxy-tetrahydropyran-2-yl]methoxy]-3-(3-hydroxytetradecanoylamino)-6-methylol-tetrahydropyran-4-yl] ester

>  <PUBCHEM_IUPAC_INCHI>  (1) 
InChI=1S/C68H129N2O20P/c1-5-9-13-17-21-25-29-33-37-41-51(72)45-57(76)69-61-65(88-59(78)47-53(74)43-39-35-31-27-23-19-15-11-7-3)63(80)55(49-71)86-67(61)85-50-56-64(81)66(89-60(79)48-54(75)44-40-36-32-28-24-20-16-12-8-4)62(68(87-56)90-91(82,83)84)70-58(77)46-52(73)42-38-34-30-26-22-18-14-10-6-2/h51-56,61-68,71-75,80-81H,5-50H2,1-4H3,(H,69,76)(H,70,77)(H2,82,83,84)

>  <PUBCHEM_IUPAC_INCHIKEY>  (1) 
HLDJGHAAKRKPAV-UHFFFAOYSA-N

>  <PUBCHEM_XLOGP3_AA>  (1) 
16

>  <PUBCHEM_EXACT_MASS>  (1) 
1324.887632

>  <PUBCHEM_MOLECULAR_FORMULA>  (1) 
C68H129N2O20P

>  <PUBCHEM_MOLECULAR_WEIGHT>  (1) 
1325.7

>  <PUBCHEM_OPENEYE_CAN_SMILES>  (1) 
CCCCCCCCCCCC(CC(=O)NC1C(C(C(OC1OCC2C(C(C(C(O2)OP(=O)(O)O)NC(=O)CC(CCCCCCCCCCC)O)OC(=O)CC(CCCCCCCCCCC)O)O)CO)O)OC(=O)CC(CCCCCCCCCCC)O)O

>  <PUBCHEM_OPENEYE_ISO_SMILES>  (1) 
CCCCCCCCCCCC(CC(=O)NC1C(C(C(OC1OCC2C(C(C(C(O2)OP(=O)(O)O)NC(=O)CC(CCCCCCCCCCC)O)OC(=O)CC(CCCCCCCCCCC)O)O)CO)O)OC(=O)CC(CCCCCCCCCCC)O)O

>  <PUBCHEM_CACTVS_TPSA>  (1) 
347

>  <PUBCHEM_MONOISOTOPIC_WEIGHT>  (1) 
1324.887632

>  <PUBCHEM_TOTAL_CHARGE>  (1) 
0

>  <PUBCHEM_HEAVY_ATOM_COUNT>  (1) 
91

>  <PUBCHEM_ATOM_DEF_STEREO_COUNT>  (1) 
0

>  <PUBCHEM_ATOM_UDEF_STEREO_COUNT>  (1) 
14

>  <PUBCHEM_BOND_DEF_STEREO_COUNT>  (1) 
0

>  <PUBCHEM_BOND_UDEF_STEREO_COUNT>  (1) 
0

>  <PUBCHEM_ISOTOPIC_ATOM_COUNT>  (1) 
0

>  <PUBCHEM_COMPONENT_COUNT>  (1) 
1

>  <PUBCHEM_CACTVS_TAUTO_COUNT>  (1) 
-1

>  <PUBCHEM_COORDINATE_TYPE>  (1) 
1
5
255

>  <PUBCHEM_BONDANNOTATIONS>  (1) 
43  17  3
45  18  3
46  20  3
47  21  3
24  22  3
29  23  3
25  34  3
32  35  3
30  4  3
26  5  3
28  6  3
27  7  3
33  8  3
31  9  3

$$$$
