26
     RDKit          2D

 19 20  0  0  1  0  0  0  0  0999 V2000
    1.1336   -3.3316    0.0000 O   0  0  0  0  0  0  0  0  0  0  0  0
   -1.8382   -2.9209    0.0000 O   0  0  0  0  0  0  0  0  0  0  0  0
    1.2797    3.2051    0.0000 O   0  0  0  0  0  0  0  0  0  0  0  0
   -3.8892   -1.3261    0.0000 O   0  0  0  0  0  0  0  0  0  0  0  0
   -2.6128    2.4316    0.0000 O   0  0  0  0  0  0  0  0  0  0  0  0
    0.5685   -1.9421    0.0000 N   0  0  0  0  0  0  0  0  0  0  0  0
   -0.5618    0.8369    0.0000 N   0  0  0  0  0  0  0  0  0  0  0  0
    2.9751   -0.9633    0.0000 N   0  0  0  0  0  0  0  0  0  0  0  0
    3.3307    1.6104    0.0000 N   0  0  0  0  0  0  0  0  0  0  0  0
    5.3817    0.0156    0.0000 N   0  0  0  0  0  0  0  0  0  0  0  0
    1.4892   -0.7579    0.0000 C   0  0  0  0  0  0  0  0  0  0  0  0
    0.9241    0.6315    0.0000 C   0  0  0  0  0  0  0  0  0  0  0  0
   -0.9174   -1.7368    0.0000 C   0  0  0  0  0  0  0  0  0  0  0  0
   -1.4825   -0.3473    0.0000 C   0  0  0  0  0  0  0  0  0  0  0  0
    1.8448    1.8157    0.0000 C   0  0  0  0  0  0  0  0  0  0  0  0
    3.8959    0.2209    0.0000 C   0  0  0  0  0  0  0  0  0  0  0  0
   -2.9684   -0.1420    0.0000 C   0  0  0  0  0  0  0  0  0  0  0  0
   -3.5336    1.2475    0.0000 C   0  0  0  0  0  0  0  0  0  0  0  0
   -5.0194    1.4528    0.0000 C   0  0  0  0  0  0  0  0  0  0  0  0
  1  6  1  0
  2 13  1  0
  3 15  2  0
  4 17  2  0
  5 18  2  0
  6 11  1  0
  6 13  1  0
  7 12  1  0
  7 14  2  0
  8 11  1  0
  8 16  2  0
  9 15  1  0
  9 16  1  0
 10 16  1  0
 11 12  1  0
 12 15  1  0
 13 14  1  0
 14 17  1  0
 17 18  1  0
 18 19  1  0
M  END
>  <PUBCHEM_COMPOUND_CID>  (1) 
26

>  <PUBCHEM_COMPOUND_CANONICALIZED>  (1) 
1

>  <PUBCHEM_CACTVS_COMPLEXITY>  (1) 
527

>  <PUBCHEM_CACTVS_HBOND_ACCEPTOR>  (1) 
8

>  <PUBCHEM_CACTVS_HBOND_DONOR>  (1) 
4

>  <PUBCHEM_CACTVS_ROTATABLE_BOND>  (1) 
2

>  <PUBCHEM_CACTVS_SUBSKEYS>  (1) 
AAADccBzuAAAAAAAAAAAAAAAAAAAAAAAAAAgQAAAAAAAAACAAAAAHgAUCAAACCzhgAYDAALQAgAoAYEwNAQAAAEAAAAhAAG4AACAUB4AyAAUQAAEMQKAAACWAAAAAAAAAAAAAAAAAAAAAAAAAAAAAAAAAA==

>  <PUBCHEM_IUPAC_OPENEYE_NAME>  (1) 
1-(2-amino-7,8-dihydroxy-4-oxo-3,4a,7,8a-tetrahydropteridin-6-yl)propane-1,2-dione

>  <PUBCHEM_IUPAC_CAS_NAME>  (1) 
1-(2-amino-7,8-dihydroxy-4-oxo-3,4a,7,8a-tetrahydropteridin-6-yl)propane-1,2-dione

>  <PUBCHEM_IUPAC_NAME_MARKUP>  (1) 
1-(2-amino-7,8-dihydroxy-4-oxo-3,4<I>a</I>,7,8<I>a</I>-tetrahydropteridin-6-yl)propane-1,2-dione

>  <PUBCHEM_IUPAC_NAME>  (1) 
1-(2-amino-7,8-dihydroxy-4-oxo-3,4a,7,8a-tetrahydropteridin-6-yl)propane-1,2-dione

>  <PUBCHEM_IUPAC_SYSTEMATIC_NAME>  (1) 
1-[2-azanyl-7,8-bis(oxidanyl)-4-oxidanylidene-3,4a,7,8a-tetrahydropteridin-6-yl]propane-1,2-dione

>  <PUBCHEM_IUPAC_TRADITIONAL_NAME>  (1) 
1-(2-amino-7,8-dihydroxy-4-keto-3,4a,7,8a-tetrahydropteridin-6-yl)propane-1,2-dione

>  <PUBCHEM_IUPAC_INCHI>  (1) 
InChI=1S/C9H11N5O5/c1-2(15)5(16)3-8(18)14(19)6-4(11-3)7(17)13-9(10)12-6/h4,6,8,18-19H,1H3,(H3,10,12,13,17)

>  <PUBCHEM_IUPAC_INCHIKEY>  (1) 
FNUPJNCDWIHIRQ-UHFFFAOYSA-N

>  <PUBCHEM_XLOGP3_AA>  (1) 
-2.7

>  <PUBCHEM_EXACT_MASS>  (1) 
269.076018

>  <PUBCHEM_MOLECULAR_FORMULA>  (1) 
C9H11N5O5

>  <PUBCHEM_MOLECULAR_WEIGHT>  (1) 
269.21

>  <PUBCHEM_OPENEYE_CAN_SMILES>  (1) 
CC(=O)C(=O)C1=NC2C(N=C(NC2=O)N)N(C1O)O

>  <PUBCHEM_OPENEYE_ISO_SMILES>  (1) 
CC(=O)C(=O)C1=NC2C(N=C(NC2=O)N)N(C1O)O

>  <PUBCHEM_CACTVS_TPSA>  (1) 
158

>  <PUBCHEM_MONOISOTOPIC_WEIGHT>  (1) 
269.076018

>  <PUBCHEM_TOTAL_CHARGE>  (1) 
0

>  <PUBCHEM_HEAVY_ATOM_COUNT>  (1) 
19

>  <PUBCHEM_ATOM_DEF_STEREO_COUNT>  (1) 
0

>  <PUBCHEM_ATOM_UDEF_STEREO_COUNT>  (1) 
3

>  <PUBCHEM_BOND_DEF_STEREO_COUNT>  (1) 
0

>  <PUBCHEM_BOND_UDEF_STEREO_COUNT>  (1) 
0

>  <PUBCHEM_ISOTOPIC_ATOM_COUNT>  (1) 
0

>  <PUBCHEM_COMPONENT_COUNT>  (1) 
1

>  <PUBCHEM_CACTVS_TAUTO_COUNT>  (1) 
-1

>  <PUBCHEM_COORDINATE_TYPE>  (1) 
1
5
255

>  <PUBCHEM_BONDANNOTATIONS>  (1) 
12  15  3
13  2  3
11  6  3

$$$$
