266
     RDKit          2D

 10  9  0  0  0  0  0  0  0  0999 V2000
    1.8286    0.4079    0.0000 P   0  0  0  0  0  0  0  0  0  0  0  0
    0.3314    0.5002    0.0000 O   0  0  0  0  0  0  0  0  0  0  0  0
    0.1716   -2.0930    0.0000 O   0  0  0  0  0  0  0  0  0  0  0  0
    1.7363   -1.0892    0.0000 O   0  0  0  0  0  0  0  0  0  0  0  0
    3.3257    0.3157    0.0000 O   0  0  0  0  0  0  0  0  0  0  0  0
    1.9208    1.9051    0.0000 O   0  0  0  0  0  0  0  0  0  0  0  0
   -1.9942   -0.6580    0.0000 C   0  0  0  0  0  0  0  0  0  0  0  0
   -2.6629    0.6847    0.0000 C   0  0  0  0  0  0  0  0  0  0  0  0
   -4.1601    0.7770    0.0000 C   0  0  0  0  0  0  0  0  0  0  0  0
   -0.4971   -0.7503    0.0000 C   0  0  0  0  0  0  0  0  0  0  0  0
  1  2  1  0
  1  4  1  0
  1  5  1  0
  1  6  2  0
  2 10  1  0
  3 10  2  0
  7  8  1  0
  7 10  1  0
  8  9  1  0
M  END
>  <PUBCHEM_COMPOUND_CID>  (1) 
266

>  <PUBCHEM_COMPOUND_CANONICALIZED>  (1) 
1

>  <PUBCHEM_CACTVS_COMPLEXITY>  (1) 
159

>  <PUBCHEM_CACTVS_HBOND_ACCEPTOR>  (1) 
5

>  <PUBCHEM_CACTVS_HBOND_DONOR>  (1) 
2

>  <PUBCHEM_CACTVS_ROTATABLE_BOND>  (1) 
4

>  <PUBCHEM_CACTVS_SUBSKEYS>  (1) 
AAADccBgOAIAAAAAAAAAAAAAAAAAAAAAAAAAAAAAAAAAAAAAAAAAGgAACCAACACAgAACCAAAARAIQACQCIAAAAAAAAAAAAEAAAAAABAAAAAAAAAEAAAAAAAAAAAAAAAAAAAAAAAAAAAAAAAAAAAAAAAAAA==

>  <PUBCHEM_IUPAC_OPENEYE_NAME>  (1) 
phosphono butanoate

>  <PUBCHEM_IUPAC_CAS_NAME>  (1) 
butanoic acid phosphono ester

>  <PUBCHEM_IUPAC_NAME_MARKUP>  (1) 
phosphono butanoate

>  <PUBCHEM_IUPAC_NAME>  (1) 
phosphono butanoate

>  <PUBCHEM_IUPAC_SYSTEMATIC_NAME>  (1) 
phosphono butanoate

>  <PUBCHEM_IUPAC_TRADITIONAL_NAME>  (1) 
butyric acid phosphono ester

>  <PUBCHEM_IUPAC_INCHI>  (1) 
InChI=1S/C4H9O5P/c1-2-3-4(5)9-10(6,7)8/h2-3H2,1H3,(H2,6,7,8)

>  <PUBCHEM_IUPAC_INCHIKEY>  (1) 
JSHMCUNOMIZJDJ-UHFFFAOYSA-N

>  <PUBCHEM_XLOGP3_AA>  (1) 
-0.7

>  <PUBCHEM_EXACT_MASS>  (1) 
168.01876

>  <PUBCHEM_MOLECULAR_FORMULA>  (1) 
C4H9O5P

>  <PUBCHEM_MOLECULAR_WEIGHT>  (1) 
168.08

>  <PUBCHEM_OPENEYE_CAN_SMILES>  (1) 
CCCC(=O)OP(=O)(O)O

>  <PUBCHEM_OPENEYE_ISO_SMILES>  (1) 
CCCC(=O)OP(=O)(O)O

>  <PUBCHEM_CACTVS_TPSA>  (1) 
83.8

>  <PUBCHEM_MONOISOTOPIC_WEIGHT>  (1) 
168.01876

>  <PUBCHEM_TOTAL_CHARGE>  (1) 
0

>  <PUBCHEM_HEAVY_ATOM_COUNT>  (1) 
10

>  <PUBCHEM_ATOM_DEF_STEREO_COUNT>  (1) 
0

>  <PUBCHEM_ATOM_UDEF_STEREO_COUNT>  (1) 
0

>  <PUBCHEM_BOND_DEF_STEREO_COUNT>  (1) 
0

>  <PUBCHEM_BOND_UDEF_STEREO_COUNT>  (1) 
0

>  <PUBCHEM_ISOTOPIC_ATOM_COUNT>  (1) 
0

>  <PUBCHEM_COMPONENT_COUNT>  (1) 
1

>  <PUBCHEM_CACTVS_TAUTO_COUNT>  (1) 
-1

>  <PUBCHEM_COORDINATE_TYPE>  (1) 
1
5
255

$$$$
