269
     RDKit          2D

119119  0  0  1  0  0  0  0  0999 V2000
   15.1042   -7.4083    0.0000 P   0  0  0  0  0  0  0  0  0  0  0  0
   14.3865   -9.9053    0.0000 P   0  0  0  0  0  0  0  0  0  0  0  0
   12.2210   -6.5796    0.0000 O   0  0  0  0  0  0  0  0  0  0  0  0
   11.1351   -2.2125    0.0000 O   0  0  0  0  0  0  0  0  0  0  0  0
    8.9758   -4.2951    0.0000 O   0  0  0  0  0  0  0  0  0  0  0  0
   14.7423   -5.9527    0.0000 O   0  0  0  0  0  0  0  0  0  0  0  0
   10.0616   -8.6622    0.0000 O   0  0  0  0  0  0  0  0  0  0  0  0
   15.4662   -8.8640    0.0000 O   0  0  0  0  0  0  0  0  0  0  0  0
   16.5599   -7.0464    0.0000 O   0  0  0  0  0  0  0  0  0  0  0  0
   15.8220   -4.9114    0.0000 O   0  0  0  0  0  0  0  0  0  0  0  0
   13.6485   -7.7703    0.0000 O   0  0  0  0  0  0  0  0  0  0  0  0
   10.4112    0.6988    0.0000 O   0  0  0  0  0  0  0  0  0  0  0  0
   13.3068  -10.9466    0.0000 O   0  0  0  0  0  0  0  0  0  0  0  0
   13.3452   -8.8256    0.0000 O   0  0  0  0  0  0  0  0  0  0  0  0
   15.4278  -10.9850    0.0000 O   0  0  0  0  0  0  0  0  0  0  0  0
   10.0493    2.1545    0.0000 O   0  0  0  0  0  0  0  0  0  0  0  0
    6.8041    4.4389    0.0000 O   0  0  0  0  0  0  0  0  0  0  0  0
    8.6077    2.5689    0.0000 O   0  0  0  0  0  0  0  0  0  0  0  0
    8.2396    9.4329    0.0000 O   0  0  0  0  0  0  0  0  0  0  0  0
    7.8776   10.8886    0.0000 O   0  0  0  0  0  0  0  0  0  0  0  0
   -0.0544   15.8718    0.0000 O   0  0  0  0  0  0  0  0  0  0  0  0
   -0.7721   13.3749    0.0000 O   0  0  0  0  0  0  0  0  0  0  0  0
    8.9573   11.9298    0.0000 O   0  0  0  0  0  0  0  0  0  0  0  0
   12.9202   12.1424    0.0000 O   0  0  0  0  0  0  0  0  0  0  0  0
   10.3989   11.5155    0.0000 O   0  0  0  0  0  0  0  0  0  0  0  0
   14.0184   -3.0413    0.0000 N   0  0  0  0  0  0  0  0  0  0  0  0
   12.9325    1.3257    0.0000 N   0  0  0  0  0  0  0  0  0  0  0  0
   10.7670    4.6515    0.0000 N   0  0  0  0  0  0  0  0  0  0  0  0
    5.7183    8.8060    0.0000 N   0  0  0  0  0  0  0  0  0  0  0  0
    6.0741   12.7586    0.0000 N   0  0  0  0  0  0  0  0  0  0  0  0
    2.8289   15.0431    0.0000 N   0  0  0  0  0  0  0  0  0  0  0  0
    9.6750   14.4268    0.0000 N   0  0  0  0  0  0  0  0  0  0  0  0
   11.4971   -3.6682    0.0000 C   0  0  0  0  0  0  0  0  0  0  0  0
   12.9387   -4.0826    0.0000 C   0  0  0  0  0  0  0  0  0  0  0  0
   10.4174   -4.7095    0.0000 C   0  0  0  0  0  0  0  0  0  0  0  0
   10.7793   -6.1652    0.0000 C   0  0  0  0  0  0  0  0  0  0  0  0
   13.3007   -5.5383    0.0000 C   0  0  0  0  0  0  0  0  0  0  0  0
    9.6997   -7.2065    0.0000 C   0  0  0  0  0  0  0  0  0  0  0  0
   12.2148   -1.1712    0.0000 C   0  0  0  0  0  0  0  0  0  0  0  0
   15.4600   -3.4557    0.0000 C   0  0  0  0  0  0  0  0  0  0  0  0
   13.6564   -1.5856    0.0000 C   0  0  0  0  0  0  0  0  0  0  0  0
   11.8529    0.2844    0.0000 C   0  0  0  0  0  0  0  0  0  0  0  0
   16.5397   -2.4144    0.0000 C   0  0  0  0  0  0  0  0  0  0  0  0
   12.5706    2.7814    0.0000 C   0  0  0  0  0  0  0  0  0  0  0  0
   13.6503    3.8227    0.0000 C   0  0  0  0  0  0  0  0  0  0  0  0
   11.1290    3.1958    0.0000 C   0  0  0  0  0  0  0  0  0  0  0  0
    9.3254    5.0658    0.0000 C   0  0  0  0  0  0  0  0  0  0  0  0
    8.9635    6.5215    0.0000 C   0  0  0  0  0  0  0  0  0  0  0  0
   11.8652  -10.5322    0.0000 C   0  0  0  0  0  0  0  0  0  0  0  0
    7.5218    6.9359    0.0000 C   0  0  0  0  0  0  0  0  0  0  0  0
    8.2457    4.0246    0.0000 C   0  0  0  0  0  0  0  0  0  0  0  0
   10.7855  -11.5735    0.0000 C   0  0  0  0  0  0  0  0  0  0  0  0
    7.1599    8.3916    0.0000 C   0  0  0  0  0  0  0  0  0  0  0  0
    9.3439  -11.1591    0.0000 C   0  0  0  0  0  0  0  0  0  0  0  0
    5.3563   10.2616    0.0000 C   0  0  0  0  0  0  0  0  0  0  0  0
    8.9819   -9.7034    0.0000 C   0  0  0  0  0  0  0  0  0  0  0  0
    3.9147   10.6760    0.0000 C   0  0  0  0  0  0  0  0  0  0  0  0
    8.2642  -12.2004    0.0000 C   0  0  0  0  0  0  0  0  0  0  0  0
    3.5527   12.1317    0.0000 C   0  0  0  0  0  0  0  0  0  0  0  0
    7.5403   -9.2891    0.0000 C   0  0  0  0  0  0  0  0  0  0  0  0
    6.4360   11.3029    0.0000 C   0  0  0  0  0  0  0  0  0  0  0  0
    2.1111   12.5461    0.0000 C   0  0  0  0  0  0  0  0  0  0  0  0
    1.7492   14.0018    0.0000 C   0  0  0  0  0  0  0  0  0  0  0  0
    7.1784   -7.8334    0.0000 C   0  0  0  0  0  0  0  0  0  0  0  0
    7.1537   13.7999    0.0000 C   0  0  0  0  0  0  0  0  0  0  0  0
    5.7367   -7.4190    0.0000 C   0  0  0  0  0  0  0  0  0  0  0  0
    0.3075   14.4162    0.0000 C   0  0  0  0  0  0  0  0  0  0  0  0
    4.6571   -8.4603    0.0000 C   0  0  0  0  0  0  0  0  0  0  0  0
    6.7918   15.2556    0.0000 C   0  0  0  0  0  0  0  0  0  0  0  0
    8.5954   13.3855    0.0000 C   0  0  0  0  0  0  0  0  0  0  0  0
    5.3748   -5.9633    0.0000 C   0  0  0  0  0  0  0  0  0  0  0  0
    3.2154   -8.0459    0.0000 C   0  0  0  0  0  0  0  0  0  0  0  0
   11.1167   14.0124    0.0000 C   0  0  0  0  0  0  0  0  0  0  0  0
    2.1357   -9.0872    0.0000 C   0  0  0  0  0  0  0  0  0  0  0  0
    0.6941   -8.6728    0.0000 C   0  0  0  0  0  0  0  0  0  0  0  0
   12.1963   15.0537    0.0000 C   0  0  0  0  0  0  0  0  0  0  0  0
   11.4786   12.5568    0.0000 C   0  0  0  0  0  0  0  0  0  0  0  0
    0.3322   -7.2171    0.0000 C   0  0  0  0  0  0  0  0  0  0  0  0
   -0.3856   -9.7141    0.0000 C   0  0  0  0  0  0  0  0  0  0  0  0
   -1.1095   -6.8028    0.0000 C   0  0  0  0  0  0  0  0  0  0  0  0
   -1.4714   -5.3471    0.0000 C   0  0  0  0  0  0  0  0  0  0  0  0
   -2.9130   -4.9327    0.0000 C   0  0  0  0  0  0  0  0  0  0  0  0
   -3.9927   -5.9740    0.0000 C   0  0  0  0  0  0  0  0  0  0  0  0
   -5.4343   -5.5596    0.0000 C   0  0  0  0  0  0  0  0  0  0  0  0
   -8.3176   -4.7308    0.0000 C   0  0  0  0  0  0  0  0  0  0  0  0
   -7.9556   -6.1865    0.0000 C   0  0  0  0  0  0  0  0  0  0  0  0
   -3.2750   -3.4770    0.0000 C   0  0  0  0  0  0  0  0  0  0  0  0
   -6.5140   -6.6009    0.0000 C   0  0  0  0  0  0  0  0  0  0  0  0
   -9.7592   -4.3164    0.0000 C   0  0  0  0  0  0  0  0  0  0  0  0
  -12.6425   -3.4877    0.0000 C   0  0  0  0  0  0  0  0  0  0  0  0
  -14.0841   -3.0733    0.0000 C   0  0  0  0  0  0  0  0  0  0  0  0
  -11.5628   -2.4464    0.0000 C   0  0  0  0  0  0  0  0  0  0  0  0
  -16.9673   -2.2445    0.0000 C   0  0  0  0  0  0  0  0  0  0  0  0
  -18.4090   -1.8301    0.0000 C   0  0  0  0  0  0  0  0  0  0  0  0
  -16.6054   -3.7002    0.0000 C   0  0  0  0  0  0  0  0  0  0  0  0
  -10.1212   -2.8608    0.0000 C   0  0  0  0  0  0  0  0  0  0  0  0
  -21.2922   -1.0014    0.0000 C   0  0  0  0  0  0  0  0  0  0  0  0
  -15.1638   -4.1146    0.0000 C   0  0  0  0  0  0  0  0  0  0  0  0
  -20.2125    0.0399    0.0000 C   0  0  0  0  0  0  0  0  0  0  0  0
  -22.7338   -0.5870    0.0000 C   0  0  0  0  0  0  0  0  0  0  0  0
  -18.7709   -0.3745    0.0000 C   0  0  0  0  0  0  0  0  0  0  0  0
   -9.0353   -7.2278    0.0000 C   0  0  0  0  0  0  0  0  0  0  0  0
  -25.6171    0.2418    0.0000 C   0  0  0  0  0  0  0  0  0  0  0  0
  -25.2552   -1.2139    0.0000 C   0  0  0  0  0  0  0  0  0  0  0  0
  -23.8135   -1.6283    0.0000 C   0  0  0  0  0  0  0  0  0  0  0  0
  -11.9247   -0.9907    0.0000 C   0  0  0  0  0  0  0  0  0  0  0  0
  -27.0587    0.6562    0.0000 C   0  0  0  0  0  0  0  0  0  0  0  0
  -17.6851   -4.7415    0.0000 C   0  0  0  0  0  0  0  0  0  0  0  0
  -20.5745    1.4956    0.0000 C   0  0  0  0  0  0  0  0  0  0  0  0
  -27.4207    2.1118    0.0000 C   0  0  0  0  0  0  0  0  0  0  0  0
  -28.8623    2.5262    0.0000 C   0  0  0  0  0  0  0  0  0  0  0  0
  -26.3348   -2.2552    0.0000 C   0  0  0  0  0  0  0  0  0  0  0  0
  -29.9420    1.4849    0.0000 C   0  0  0  0  0  0  0  0  0  0  0  0
  -31.3836    1.8993    0.0000 C   0  0  0  0  0  0  0  0  0  0  0  0
  -29.2242    3.9819    0.0000 C   0  0  0  0  0  0  0  0  0  0  0  0
  -32.4633    0.8580    0.0000 C   0  0  0  0  0  0  0  0  0  0  0  0
  -33.9049    1.2724    0.0000 C   0  0  0  0  0  0  0  0  0  0  0  0
  -34.9846    0.2311    0.0000 C   0  0  0  0  0  0  0  0  0  0  0  0
  -34.2669    2.7281    0.0000 C   0  0  0  0  0  0  0  0  0  0  0  0
  1  6  1  0
  1  8  1  0
  1  9  1  0
  1 11  2  0
  2  8  1  0
  2 13  1  0
  2 14  1  0
  2 15  2  0
  3 36  1  0
  3 37  1  0
  4 33  1  0
  4 39  1  0
  5 35  1  0
  6 37  1  0
  7 38  1  0
 10 40  2  0
 12 42  2  0
 13 49  1  0
 16 46  2  0
 17 51  1  0
 18 51  2  0
 19 53  2  0
 20 61  2  0
 21 67  1  0
 22 67  2  0
 23 70  2  0
 24 77  1  0
 25 77  2  0
 26 34  1  0
 26 40  1  0
 27 42  1  0
 27 44  1  0
 28 46  1  0
 28 47  1  0
 29 53  1  0
 29 55  1  0
 30 61  1  0
 30 65  1  0
 31 63  1  0
 32 70  1  0
 32 73  1  0
 33 34  1  0
 33 35  1  0
 34 37  1  0
 35 36  1  0
 36 38  1  0
 39 41  1  0
 39 42  1  0
 40 43  1  0
 44 45  1  0
 44 46  1  0
 47 48  1  0
 47 51  1  0
 48 50  1  0
 49 52  1  0
 50 53  1  0
 52 54  2  3
 54 56  1  0
 54 58  1  0
 55 57  1  0
 55 61  1  0
 56 60  1  0
 57 59  1  0
 59 62  1  0
 60 64  1  0
 62 63  1  0
 63 67  1  0
 64 66  2  3
 65 69  1  0
 65 70  1  0
 66 68  1  0
 66 71  1  0
 68 72  1  0
 72 74  1  0
 73 76  1  0
 73 77  1  0
 74 75  2  3
 75 78  1  0
 75 79  1  0
 78 80  1  0
 80 81  1  0
 81 82  2  3
 82 83  1  0
 82 87  1  0
 83 84  1  0
 84 88  1  0
 85 86  1  0
 85 89  1  0
 86 88  2  3
 86102  1  0
 89 96  1  0
 90 91  1  0
 90 92  1  0
 91 98  1  0
 92 96  2  3
 92106  1  0
 93 94  1  0
 93 95  1  0
 94101  1  0
 95 98  2  3
 95108  1  0
 97 99  1  0
 97100  1  0
 99101  2  3
 99109  1  0
100105  1  0
103104  1  0
103107  1  0
104105  2  3
104112  1  0
107110  1  0
110111  2  3
111113  1  0
111115  1  0
113114  1  0
114116  1  0
116117  2  3
117118  1  0
117119  1  0
M  END
>  <PUBCHEM_COMPOUND_CID>  (1) 
269

>  <PUBCHEM_COMPOUND_CANONICALIZED>  (1) 
1

>  <PUBCHEM_CACTVS_COMPLEXITY>  (1) 
3740

>  <PUBCHEM_CACTVS_HBOND_ACCEPTOR>  (1) 
24

>  <PUBCHEM_CACTVS_HBOND_DONOR>  (1) 
14

>  <PUBCHEM_CACTVS_ROTATABLE_BOND>  (1) 
60

>  <PUBCHEM_CACTVS_SUBSKEYS>  (1) 
AAADcfB/vgMAAAAAAAAAAAAAAAAAAAAAAAAkAAAAAAAAAAAAAAAAHgAQCCAADDzxgAcCCALABxCIQiHSGIIAAAAgAAAACIHIAAgTVBIAgSQXUAAHlgCfAAP8/yeAAAAAAAAAAAAAAAAAAAAAAAAAAAAAAA==

>  <PUBCHEM_IUPAC_OPENEYE_NAME>  (1) 
6-[[4-[2-[2-[3-acetamido-5-hydroxy-2-[hydroxy-[hydroxy(3,7,11,15,19,23,27,31,35,39,43-undecamethyltetratetraconta-2,6,10,14,18,22,26,30,34,38,42-undecaenoxy)phosphoryl]oxy-phosphoryl]oxy-6-(hydroxymethyl)tetrahydropyran-4-yl]oxypropanoylamino]propanoylamino]-4-carboxy-butanoyl]amino]-2-amino-7-[[2-(1-carboxyethylamino)-1-methyl-2-oxo-ethyl]amino]-7-oxo-heptanoic acid

>  <PUBCHEM_IUPAC_CAS_NAME>  (1) 
6-[[4-[[2-[[2-[[3-acetamido-5-hydroxy-2-[hydroxy-[hydroxy(3,7,11,15,19,23,27,31,35,39,43-undecamethyltetratetraconta-2,6,10,14,18,22,26,30,34,38,42-undecaenoxy)phosphoryl]oxyphosphoryl]oxy-6-(hydroxymethyl)-4-oxanyl]oxy]-1-oxopropyl]amino]-1-oxopropyl]amino]-4-carboxy-1-oxobutyl]amino]-2-amino-7-[[1-(1-carboxyethylamino)-1-oxopropan-2-yl]amino]-7-oxoheptanoic acid

>  <PUBCHEM_IUPAC_NAME_MARKUP>  (1) 
6-[[4-[2-[2-[3-acetamido-5-hydroxy-2-[hydroxy-[hydroxy(3,7,11,15,19,23,27,31,35,39,43-undecamethyltetratetraconta-2,6,10,14,18,22,26,30,34,38,42-undecaenoxy)phosphoryl]oxyphosphoryl]oxy-6-(hydroxymethyl)oxan-4-yl]oxypropanoylamino]propanoylamino]-4-carboxybutanoyl]amino]-2-amino-7-[[1-(1-carboxyethylamino)-1-oxopropan-2-yl]amino]-7-oxoheptanoic acid

>  <PUBCHEM_IUPAC_NAME>  (1) 
6-[[4-[2-[2-[3-acetamido-5-hydroxy-2-[hydroxy-[hydroxy(3,7,11,15,19,23,27,31,35,39,43-undecamethyltetratetraconta-2,6,10,14,18,22,26,30,34,38,42-undecaenoxy)phosphoryl]oxyphosphoryl]oxy-6-(hydroxymethyl)oxan-4-yl]oxypropanoylamino]propanoylamino]-4-carboxybutanoyl]amino]-2-amino-7-[[1-(1-carboxyethylamino)-1-oxopropan-2-yl]amino]-7-oxoheptanoic acid

>  <PUBCHEM_IUPAC_SYSTEMATIC_NAME>  (1) 
6-[[4-[2-[2-[5-acetamido-2-(hydroxymethyl)-3-oxidanyl-6-[oxidanyl-[oxidanyl(3,7,11,15,19,23,27,31,35,39,43-undecamethyltetratetraconta-2,6,10,14,18,22,26,30,34,38,42-undecaenoxy)phosphoryl]oxy-phosphoryl]oxy-oxan-4-yl]oxypropanoylamino]propanoylamino]-5-oxidanyl-5-oxidanylidene-pentanoyl]amino]-2-azanyl-7-oxidanylidene-7-[[1-oxidanylidene-1-[(1-oxidanyl-1-oxidanylidene-propan-2-yl)amino]propan-2-yl]amino]heptanoic acid

>  <PUBCHEM_IUPAC_TRADITIONAL_NAME>  (1) 
6-[[4-[2-[2-[3-acetamido-5-hydroxy-2-[hydroxy-[hydroxy(3,7,11,15,19,23,27,31,35,39,43-undecamethyltetratetraconta-2,6,10,14,18,22,26,30,34,38,42-undecaenoxy)phosphoryl]oxy-phosphoryl]oxy-6-methylol-tetrahydropyran-4-yl]oxypropanoylamino]propanoylamino]-4-carboxy-butanoyl]amino]-2-amino-7-[[2-(1-carboxyethylamino)-2-keto-1-methyl-ethyl]amino]-7-keto-enanthic acid

>  <PUBCHEM_IUPAC_INCHI>  (1) 
InChI=1S/C87H143N7O23P2/c1-56(2)29-18-30-57(3)31-19-32-58(4)33-20-34-59(5)35-21-36-60(6)37-22-38-61(7)39-23-40-62(8)41-24-42-63(9)43-25-44-64(10)45-26-46-65(11)47-27-48-66(12)53-54-113-118(109,110)117-119(111,112)116-87-77(92-71(17)96)79(78(98)75(55-95)115-87)114-70(16)82(101)89-68(14)81(100)94-74(86(107)108)51-52-76(97)93-73(50-28-49-72(88)85(105)106)83(102)90-67(13)80(99)91-69(15)84(103)104/h29,31,33,35,37,39,41,43,45,47,53,67-70,72-75,77-79,87,95,98H,18-28,30,32,34,36,38,40,42,44,46,48-52,54-55,88H2,1-17H3,(H,89,101)(H,90,102)(H,91,99)(H,92,96)(H,93,97)(H,94,100)(H,103,104)(H,105,106)(H,107,108)(H,109,110)(H,111,112)

>  <PUBCHEM_IUPAC_INCHIKEY>  (1) 
PNWZQTONLRRPST-UHFFFAOYSA-N

>  <PUBCHEM_XLOGP3_AA>  (1) 
11.7

>  <PUBCHEM_EXACT_MASS>  (1) 
1715.971058

>  <PUBCHEM_MOLECULAR_FORMULA>  (1) 
C87H143N7O23P2

>  <PUBCHEM_MOLECULAR_WEIGHT>  (1) 
1717

>  <PUBCHEM_OPENEYE_CAN_SMILES>  (1) 
CC(C(=O)NC(CCC(=O)NC(CCCC(C(=O)O)N)C(=O)NC(C)C(=O)NC(C)C(=O)O)C(=O)O)NC(=O)C(C)OC1C(C(OC(C1O)CO)OP(=O)(O)OP(=O)(O)OCC=C(C)CCC=C(C)CCC=C(C)CCC=C(C)CCC=C(C)CCC=C(C)CCC=C(C)CCC=C(C)CCC=C(C)CCC=C(C)CCC=C(C)C)NC(=O)C

>  <PUBCHEM_OPENEYE_ISO_SMILES>  (1) 
CC(C(=O)NC(CCC(=O)NC(CCCC(C(=O)O)N)C(=O)NC(C)C(=O)NC(C)C(=O)O)C(=O)O)NC(=O)C(C)OC1C(C(OC(C1O)CO)OP(=O)(O)OP(=O)(O)OCC=C(C)CCC=C(C)CCC=C(C)CCC=C(C)CCC=C(C)CCC=C(C)CCC=C(C)CCC=C(C)CCC=C(C)CCC=C(C)CCC=C(C)C)NC(=O)C

>  <PUBCHEM_CACTVS_TPSA>  (1) 
474

>  <PUBCHEM_MONOISOTOPIC_WEIGHT>  (1) 
1715.971058

>  <PUBCHEM_TOTAL_CHARGE>  (1) 
0

>  <PUBCHEM_HEAVY_ATOM_COUNT>  (1) 
119

>  <PUBCHEM_ATOM_DEF_STEREO_COUNT>  (1) 
0

>  <PUBCHEM_ATOM_UDEF_STEREO_COUNT>  (1) 
12

>  <PUBCHEM_BOND_DEF_STEREO_COUNT>  (1) 
0

>  <PUBCHEM_BOND_UDEF_STEREO_COUNT>  (1) 
10

>  <PUBCHEM_ISOTOPIC_ATOM_COUNT>  (1) 
0

>  <PUBCHEM_COMPONENT_COUNT>  (1) 
1

>  <PUBCHEM_CACTVS_TAUTO_COUNT>  (1) 
-1

>  <PUBCHEM_COORDINATE_TYPE>  (1) 
1
5
255

>  <PUBCHEM_BONDANNOTATIONS>  (1) 
104  105  1
110  111  1
34  26  3
63  31  3
36  38  3
39  41  3
33  4  3
44  45  3
47  48  3
35  5  3
52  54  1
55  57  3
37  6  3
64  66  1
65  69  3
73  76  3
74  75  1
81  82  1
86  88  1
92  96  1
95  98  1
99  101  1

$$$$
