270
     RDKit          2D

133134  0  0  1  0  0  0  0  0999 V2000
    1.3629   -4.6279    0.0000 P   0  0  0  0  0  0  0  0  0  0  0  0
   -1.1306   -3.8983    0.0000 P   0  0  0  0  0  0  0  0  0  0  0  0
    4.5054    1.4855    0.0000 O   0  0  0  0  0  0  0  0  0  0  0  0
    2.2055   -1.7487    0.0000 O   0  0  0  0  0  0  0  0  0  0  0  0
    6.3841    3.2802    0.0000 O   0  0  0  0  0  0  0  0  0  0  0  0
    6.5777   -0.6837    0.0000 O   0  0  0  0  0  0  0  0  0  0  0  0
    2.8203   -4.2730    0.0000 O   0  0  0  0  0  0  0  0  0  0  0  0
    9.7241    0.3092    0.0000 O   0  0  0  0  0  0  0  0  0  0  0  0
   10.3350    2.9055    0.0000 O   0  0  0  0  0  0  0  0  0  0  0  0
    2.0119    2.2152    0.0000 O   0  0  0  0  0  0  0  0  0  0  0  0
    9.7201    5.4297    0.0000 O   0  0  0  0  0  0  0  0  0  0  0  0
   -0.0944   -4.9829    0.0000 O   0  0  0  0  0  0  0  0  0  0  0  0
    3.8565   -5.3576    0.0000 O   0  0  0  0  0  0  0  0  0  0  0  0
    1.7179   -6.0853    0.0000 O   0  0  0  0  0  0  0  0  0  0  0  0
    9.0712   -1.4134    0.0000 O   0  0  0  0  0  0  0  0  0  0  0  0
    1.0080   -3.1706    0.0000 O   0  0  0  0  0  0  0  0  0  0  0  0
    8.5167    2.6096    0.0000 O   0  0  0  0  0  0  0  0  0  0  0  0
   -2.1667   -2.8136    0.0000 O   0  0  0  0  0  0  0  0  0  0  0  0
   -0.0459   -2.8622    0.0000 O   0  0  0  0  0  0  0  0  0  0  0  0
   -2.2152   -4.9344    0.0000 O   0  0  0  0  0  0  0  0  0  0  0  0
   11.5647   -2.1431    0.0000 O   0  0  0  0  0  0  0  0  0  0  0  0
   15.0943   -3.9574    0.0000 O   0  0  0  0  0  0  0  0  0  0  0  0
   12.6008   -3.2277    0.0000 O   0  0  0  0  0  0  0  0  0  0  0  0
   18.8516   -0.3682    0.0000 O   0  0  0  0  0  0  0  0  0  0  0  0
   20.3090   -0.0132    0.0000 O   0  0  0  0  0  0  0  0  0  0  0  0
   28.4044   -4.7265    0.0000 O   0  0  0  0  0  0  0  0  0  0  0  0
   20.7303    1.4264    0.0000 O   0  0  0  0  0  0  0  0  0  0  0  0
   26.5257   -6.5211    0.0000 O   0  0  0  0  0  0  0  0  0  0  0  0
   19.0793    5.0354    0.0000 O   0  0  0  0  0  0  0  0  0  0  0  0
   19.6942    2.5111    0.0000 O   0  0  0  0  0  0  0  0  0  0  0  0
    5.7351   -3.5630    0.0000 N   0  0  0  0  0  0  0  0  0  0  0  0
    6.5777   -0.6837    0.0000 N   0  0  0  0  0  0  0  0  0  0  0  0
    9.4924    0.0262    0.0000 N   0  0  0  0  0  0  0  0  0  0  0  0
   13.4433   -0.3485    0.0000 N   0  0  0  0  0  0  0  0  0  0  0  0
   19.4665   -2.8924    0.0000 N   0  0  0  0  0  0  0  0  0  0  0  0
   22.8025   -0.7428    0.0000 N   0  0  0  0  0  0  0  0  0  0  0  0
   26.3322   -2.5572    0.0000 N   0  0  0  0  0  0  0  0  0  0  0  0
   22.6090    3.2211    0.0000 N   0  0  0  0  0  0  0  0  0  0  0  0
    4.0842    0.0459    0.0000 C   0  0  0  0  0  0  0  0  0  0  0  0
    5.1203   -1.0387    0.0000 C   0  0  0  0  0  0  0  0  0  0  0  0
    4.6990   -2.4784    0.0000 C   0  0  0  0  0  0  0  0  0  0  0  0
    2.6268   -0.3091    0.0000 C   0  0  0  0  0  0  0  0  0  0  0  0
    5.9628    1.8405    0.0000 C   0  0  0  0  0  0  0  0  0  0  0  0
    6.9989    0.7559    0.0000 C   0  0  0  0  0  0  0  0  0  0  0  0
    3.2416   -2.8333    0.0000 C   0  0  0  0  0  0  0  0  0  0  0  0
    8.4563    1.1109    0.0000 C   0  0  0  0  0  0  0  0  0  0  0  0
    8.8776    2.5505    0.0000 C   0  0  0  0  0  0  0  0  0  0  0  0
    7.8415    3.6351    0.0000 C   0  0  0  0  0  0  0  0  0  0  0  0
    1.5906    0.7756    0.0000 C   0  0  0  0  0  0  0  0  0  0  0  0
    8.2628    5.0748    0.0000 C   0  0  0  0  0  0  0  0  0  0  0  0
    6.9989    0.7559    0.0000 C   0  0  0  0  0  0  0  0  0  0  0  0
    5.3138   -5.0026    0.0000 C   0  0  0  0  0  0  0  0  0  0  0  0
    7.6138   -1.7684    0.0000 C   0  0  0  0  0  0  0  0  0  0  0  0
    6.2561    2.0590    0.0000 C   0  0  0  0  0  0  0  0  0  0  0  0
    8.4563    1.1109    0.0000 C   0  0  0  0  0  0  0  0  0  0  0  0
    6.3500   -6.0873    0.0000 C   0  0  0  0  0  0  0  0  0  0  0  0
    7.1925   -3.2080    0.0000 C   0  0  0  0  0  0  0  0  0  0  0  0
   10.9498    0.3812    0.0000 C   0  0  0  0  0  0  0  0  0  0  0  0
   11.3711    1.8208    0.0000 C   0  0  0  0  0  0  0  0  0  0  0  0
   11.9860   -0.7034    0.0000 C   0  0  0  0  0  0  0  0  0  0  0  0
   14.4795   -1.4331    0.0000 C   0  0  0  0  0  0  0  0  0  0  0  0
   -1.7454   -1.3740    0.0000 C   0  0  0  0  0  0  0  0  0  0  0  0
   15.9369   -1.0781    0.0000 C   0  0  0  0  0  0  0  0  0  0  0  0
   14.0582   -2.8727    0.0000 C   0  0  0  0  0  0  0  0  0  0  0  0
   -2.7815   -0.2894    0.0000 C   0  0  0  0  0  0  0  0  0  0  0  0
   16.9730   -2.1628    0.0000 C   0  0  0  0  0  0  0  0  0  0  0  0
   -2.3603    1.1503    0.0000 C   0  0  0  0  0  0  0  0  0  0  0  0
   18.4304   -1.8078    0.0000 C   0  0  0  0  0  0  0  0  0  0  0  0
   -0.9029    1.5052    0.0000 C   0  0  0  0  0  0  0  0  0  0  0  0
   -3.3964    2.2349    0.0000 C   0  0  0  0  0  0  0  0  0  0  0  0
   -0.4816    2.9449    0.0000 C   0  0  0  0  0  0  0  0  0  0  0  0
   20.9239   -2.5375    0.0000 C   0  0  0  0  0  0  0  0  0  0  0  0
   21.9600   -3.6221    0.0000 C   0  0  0  0  0  0  0  0  0  0  0  0
    0.9758    3.2999    0.0000 C   0  0  0  0  0  0  0  0  0  0  0  0
   23.4174   -3.2671    0.0000 C   0  0  0  0  0  0  0  0  0  0  0  0
   21.3451   -1.0978    0.0000 C   0  0  0  0  0  0  0  0  0  0  0  0
   24.4535   -4.3518    0.0000 C   0  0  0  0  0  0  0  0  0  0  0  0
    1.3971    4.7395    0.0000 C   0  0  0  0  0  0  0  0  0  0  0  0
   25.9109   -3.9968    0.0000 C   0  0  0  0  0  0  0  0  0  0  0  0
    0.3610    5.8241    0.0000 C   0  0  0  0  0  0  0  0  0  0  0  0
   23.2238    0.6968    0.0000 C   0  0  0  0  0  0  0  0  0  0  0  0
    2.8545    5.0945    0.0000 C   0  0  0  0  0  0  0  0  0  0  0  0
   -1.0964    5.4692    0.0000 C   0  0  0  0  0  0  0  0  0  0  0  0
   24.6812    1.0518    0.0000 C   0  0  0  0  0  0  0  0  0  0  0  0
   22.1877    1.7814    0.0000 C   0  0  0  0  0  0  0  0  0  0  0  0
   26.9470   -5.0814    0.0000 C   0  0  0  0  0  0  0  0  0  0  0  0
   -2.1326    6.5538    0.0000 C   0  0  0  0  0  0  0  0  0  0  0  0
   -3.5899    6.1988    0.0000 C   0  0  0  0  0  0  0  0  0  0  0  0
   21.5728    4.3057    0.0000 C   0  0  0  0  0  0  0  0  0  0  0  0
   -4.0112    4.7592    0.0000 C   0  0  0  0  0  0  0  0  0  0  0  0
   -4.6261    7.2835    0.0000 C   0  0  0  0  0  0  0  0  0  0  0  0
   21.9941    5.7453    0.0000 C   0  0  0  0  0  0  0  0  0  0  0  0
   -5.4686    4.4042    0.0000 C   0  0  0  0  0  0  0  0  0  0  0  0
   20.1155    3.9507    0.0000 C   0  0  0  0  0  0  0  0  0  0  0  0
   -5.8899    2.9646    0.0000 C   0  0  0  0  0  0  0  0  0  0  0  0
   -7.3473    2.6096    0.0000 C   0  0  0  0  0  0  0  0  0  0  0  0
   -8.3834    3.6942    0.0000 C   0  0  0  0  0  0  0  0  0  0  0  0
   -7.7685    1.1700    0.0000 C   0  0  0  0  0  0  0  0  0  0  0  0
   -9.8408    3.3393    0.0000 C   0  0  0  0  0  0  0  0  0  0  0  0
  -10.8769    4.4239    0.0000 C   0  0  0  0  0  0  0  0  0  0  0  0
  -12.3343    4.0689    0.0000 C   0  0  0  0  0  0  0  0  0  0  0  0
  -12.7556    2.6293    0.0000 C   0  0  0  0  0  0  0  0  0  0  0  0
  -14.2130    2.2743    0.0000 C   0  0  0  0  0  0  0  0  0  0  0  0
  -13.3704    5.1536    0.0000 C   0  0  0  0  0  0  0  0  0  0  0  0
  -14.6342    0.8347    0.0000 C   0  0  0  0  0  0  0  0  0  0  0  0
  -16.0916    0.4797    0.0000 C   0  0  0  0  0  0  0  0  0  0  0  0
  -17.1277    1.5643    0.0000 C   0  0  0  0  0  0  0  0  0  0  0  0
  -18.5851    1.2094    0.0000 C   0  0  0  0  0  0  0  0  0  0  0  0
  -21.4999    0.4994    0.0000 C   0  0  0  0  0  0  0  0  0  0  0  0
  -21.0786    1.9390    0.0000 C   0  0  0  0  0  0  0  0  0  0  0  0
  -22.9573    0.1444    0.0000 C   0  0  0  0  0  0  0  0  0  0  0  0
  -19.6212    2.2940    0.0000 C   0  0  0  0  0  0  0  0  0  0  0  0
  -25.8721   -0.5655    0.0000 C   0  0  0  0  0  0  0  0  0  0  0  0
  -24.8360   -1.6502    0.0000 C   0  0  0  0  0  0  0  0  0  0  0  0
  -27.3295   -0.9205    0.0000 C   0  0  0  0  0  0  0  0  0  0  0  0
  -16.5129   -0.9599    0.0000 C   0  0  0  0  0  0  0  0  0  0  0  0
  -23.3786   -1.2952    0.0000 C   0  0  0  0  0  0  0  0  0  0  0  0
  -30.2443   -1.6305    0.0000 C   0  0  0  0  0  0  0  0  0  0  0  0
  -29.8230   -0.1909    0.0000 C   0  0  0  0  0  0  0  0  0  0  0  0
  -28.3656    0.1641    0.0000 C   0  0  0  0  0  0  0  0  0  0  0  0
  -22.1148    3.0237    0.0000 C   0  0  0  0  0  0  0  0  0  0  0  0
  -31.7016   -1.9855    0.0000 C   0  0  0  0  0  0  0  0  0  0  0  0
  -25.2572   -3.0898    0.0000 C   0  0  0  0  0  0  0  0  0  0  0  0
  -32.1229   -3.4251    0.0000 C   0  0  0  0  0  0  0  0  0  0  0  0
  -33.5803   -3.7801    0.0000 C   0  0  0  0  0  0  0  0  0  0  0  0
  -30.8591    0.8938    0.0000 C   0  0  0  0  0  0  0  0  0  0  0  0
  -34.6164   -2.6954    0.0000 C   0  0  0  0  0  0  0  0  0  0  0  0
  -36.0738   -3.0504    0.0000 C   0  0  0  0  0  0  0  0  0  0  0  0
  -34.0016   -5.2197    0.0000 C   0  0  0  0  0  0  0  0  0  0  0  0
  -37.1099   -1.9658    0.0000 C   0  0  0  0  0  0  0  0  0  0  0  0
  -38.5673   -2.3208    0.0000 C   0  0  0  0  0  0  0  0  0  0  0  0
  -39.6034   -1.2361    0.0000 C   0  0  0  0  0  0  0  0  0  0  0  0
  -38.9886   -3.7604    0.0000 C   0  0  0  0  0  0  0  0  0  0  0  0
  1  7  1  0
  1 12  1  0
  1 14  1  0
  1 16  2  0
  2 12  1  0
  2 18  1  0
  2 19  1  0
  2 20  2  0
  3 39  1  0
  3 43  1  0
  4 42  1  0
  4 45  1  0
  5 43  1  0
  5 48  1  0
  6 40  1  0
  6 51  1  0
  7 45  1  0
  8 46  1  0
  9 47  1  0
 10 49  1  0
 11 50  1  0
 13 52  2  0
 15 53  2  0
 17 55  2  0
 18 62  1  0
 21 60  2  0
 22 64  1  0
 23 64  2  0
 24 68  2  0
 25 76  2  0
 26 86  1  0
 27 85  2  0
 28 86  2  0
 29 94  1  0
 30 94  2  0
 31 41  1  0
 31 52  1  0
 32 44  1  0
 32 53  1  0
 33 55  1  0
 33 58  1  0
 34 60  1  0
 34 61  1  0
 35 68  1  0
 35 72  1  0
 36 76  1  0
 36 81  1  0
 37 79  1  0
 38 85  1  0
 38 89  1  0
 39 40  1  0
 39 42  1  0
 40 41  1  0
 41 45  1  0
 42 49  1  0
 43 44  1  0
 44 46  1  0
 46 47  1  0
 47 48  1  0
 48 50  1  0
 51 54  1  0
 51 55  1  0
 52 56  1  0
 53 57  1  0
 58 59  1  0
 58 60  1  0
 61 63  1  0
 61 64  1  0
 62 65  1  0
 63 66  1  0
 65 67  2  3
 66 68  1  0
 67 69  1  0
 67 70  1  0
 69 71  1  0
 71 74  1  0
 72 73  1  0
 72 76  1  0
 73 75  1  0
 74 78  2  3
 75 77  1  0
 77 79  1  0
 78 80  1  0
 78 82  1  0
 79 86  1  0
 80 83  1  0
 81 84  1  0
 81 85  1  0
 83 87  1  0
 87 88  2  3
 88 90  1  0
 88 91  1  0
 89 92  1  0
 89 94  1  0
 90 93  1  0
 93 95  1  0
 95 96  2  3
 96 97  1  0
 96 98  1  0
 97 99  1  0
 99100  1  0
100101  2  3
101102  1  0
101104  1  0
102103  1  0
103105  1  0
105106  2  3
106107  1  0
106116  1  0
107108  1  0
108112  1  0
109110  1  0
109111  1  0
110112  2  3
110121  1  0
111117  1  0
113114  1  0
113115  1  0
114117  2  3
114123  1  0
115120  1  0
118119  1  0
118122  1  0
119120  2  3
119126  1  0
122124  1  0
124125  2  3
125127  1  0
125129  1  0
127128  1  0
128130  1  0
130131  2  3
131132  1  0
131133  1  0
M  END
>  <PUBCHEM_COMPOUND_CID>  (1) 
270

>  <PUBCHEM_COMPOUND_CANONICALIZED>  (1) 
1

>  <PUBCHEM_CACTVS_COMPLEXITY>  (1) 
4220

>  <PUBCHEM_CACTVS_HBOND_ACCEPTOR>  (1) 
29

>  <PUBCHEM_CACTVS_HBOND_DONOR>  (1) 
17

>  <PUBCHEM_CACTVS_ROTATABLE_BOND>  (1) 
64

>  <PUBCHEM_CACTVS_SUBSKEYS>  (1) 
AAADcfB//gMAAAAAAAAAAAAAAAAAAAAAAAAkSAAAAAAAAAAAAAAAHgAQCCAADDzxgAcCCALABxCIQiHSGIIAAAAgAAAACIHIAAgTVBIAgSQ3UAAHlgCfAAP8/y+AAAAAAAAAAAAAAAAAAAAAAAAAAAAAAA==

>  <PUBCHEM_IUPAC_OPENEYE_NAME>  (1) 
6-[[4-[2-[2-[3-acetamido-5-[3-acetamido-4,5-dihydroxy-6-(hydroxymethyl)tetrahydropyran-2-yl]oxy-2-[hydroxy-[hydroxy(3,7,11,15,19,23,27,31,35,39,43-undecamethyltetratetraconta-2,6,10,14,18,22,26,30,34,38,42-undecaenoxy)phosphoryl]oxy-phosphoryl]oxy-6-(hydroxymethyl)tetrahydropyran-4-yl]oxypropanoylamino]propanoylamino]-4-carboxy-butanoyl]amino]-2-amino-7-[[2-(1-carboxyethylamino)-1-methyl-2-oxo-ethyl]amino]-7-oxo-heptanoic acid

>  <PUBCHEM_IUPAC_CAS_NAME>  (1) 
6-[[4-[[2-[[2-[[3-acetamido-5-[[3-acetamido-4,5-dihydroxy-6-(hydroxymethyl)-2-oxanyl]oxy]-2-[hydroxy-[hydroxy(3,7,11,15,19,23,27,31,35,39,43-undecamethyltetratetraconta-2,6,10,14,18,22,26,30,34,38,42-undecaenoxy)phosphoryl]oxyphosphoryl]oxy-6-(hydroxymethyl)-4-oxanyl]oxy]-1-oxopropyl]amino]-1-oxopropyl]amino]-4-carboxy-1-oxobutyl]amino]-2-amino-7-[[1-(1-carboxyethylamino)-1-oxopropan-2-yl]amino]-7-oxoheptanoic acid

>  <PUBCHEM_IUPAC_NAME_MARKUP>  (1) 
6-[[4-[2-[2-[3-acetamido-5-[3-acetamido-4,5-dihydroxy-6-(hydroxymethyl)oxan-2-yl]oxy-2-[hydroxy-[hydroxy(3,7,11,15,19,23,27,31,35,39,43-undecamethyltetratetraconta-2,6,10,14,18,22,26,30,34,38,42-undecaenoxy)phosphoryl]oxyphosphoryl]oxy-6-(hydroxymethyl)oxan-4-yl]oxypropanoylamino]propanoylamino]-4-carboxybutanoyl]amino]-2-amino-7-[[1-(1-carboxyethylamino)-1-oxopropan-2-yl]amino]-7-oxoheptanoic acid

>  <PUBCHEM_IUPAC_NAME>  (1) 
6-[[4-[2-[2-[3-acetamido-5-[3-acetamido-4,5-dihydroxy-6-(hydroxymethyl)oxan-2-yl]oxy-2-[hydroxy-[hydroxy(3,7,11,15,19,23,27,31,35,39,43-undecamethyltetratetraconta-2,6,10,14,18,22,26,30,34,38,42-undecaenoxy)phosphoryl]oxyphosphoryl]oxy-6-(hydroxymethyl)oxan-4-yl]oxypropanoylamino]propanoylamino]-4-carboxybutanoyl]amino]-2-amino-7-[[1-(1-carboxyethylamino)-1-oxopropan-2-yl]amino]-7-oxoheptanoic acid

>  <PUBCHEM_IUPAC_SYSTEMATIC_NAME>  (1) 
6-[[4-[2-[2-[5-acetamido-3-[3-acetamido-6-(hydroxymethyl)-4,5-bis(oxidanyl)oxan-2-yl]oxy-2-(hydroxymethyl)-6-[oxidanyl-[oxidanyl(3,7,11,15,19,23,27,31,35,39,43-undecamethyltetratetraconta-2,6,10,14,18,22,26,30,34,38,42-undecaenoxy)phosphoryl]oxy-phosphoryl]oxy-oxan-4-yl]oxypropanoylamino]propanoylamino]-5-oxidanyl-5-oxidanylidene-pentanoyl]amino]-2-azanyl-7-oxidanylidene-7-[[1-oxidanylidene-1-[(1-oxidanyl-1-oxidanylidene-propan-2-yl)amino]propan-2-yl]amino]heptanoic acid

>  <PUBCHEM_IUPAC_TRADITIONAL_NAME>  (1) 
6-[[4-[2-[2-[3-acetamido-5-(3-acetamido-4,5-dihydroxy-6-methylol-tetrahydropyran-2-yl)oxy-2-[hydroxy-[hydroxy(3,7,11,15,19,23,27,31,35,39,43-undecamethyltetratetraconta-2,6,10,14,18,22,26,30,34,38,42-undecaenoxy)phosphoryl]oxy-phosphoryl]oxy-6-methylol-tetrahydropyran-4-yl]oxypropanoylamino]propanoylamino]-4-carboxy-butanoyl]amino]-2-amino-7-[[2-(1-carboxyethylamino)-2-keto-1-methyl-ethyl]amino]-7-keto-enanthic acid

>  <PUBCHEM_IUPAC_INCHI>  (1) 
InChI=1S/C95H156N8O28P2/c1-58(2)30-19-31-59(3)32-20-33-60(4)34-21-35-61(5)36-22-37-62(6)38-23-39-63(7)40-24-41-64(8)42-25-43-65(9)44-26-45-66(10)46-27-47-67(11)48-28-49-68(12)54-55-125-132(121,122)131-133(123,124)130-95-82(101-74(18)107)86(85(79(57-105)128-95)129-94-81(100-73(17)106)84(110)83(109)78(56-104)127-94)126-72(16)89(113)97-70(14)88(112)103-77(93(119)120)52-53-80(108)102-76(51-29-50-75(96)92(117)118)90(114)98-69(13)87(111)99-71(15)91(115)116/h30,32,34,36,38,40,42,44,46,48,54,69-72,75-79,81-86,94-95,104-105,109-110H,19-29,31,33,35,37,39,41,43,45,47,49-53,55-57,96H2,1-18H3,(H,97,113)(H,98,114)(H,99,111)(H,100,106)(H,101,107)(H,102,108)(H,103,112)(H,115,116)(H,117,118)(H,119,120)(H,121,122)(H,123,124)

>  <PUBCHEM_IUPAC_INCHIKEY>  (1) 
OXJNZXDFVLDLEI-UHFFFAOYSA-N

>  <PUBCHEM_XLOGP3_AA>  (1) 
9.5

>  <PUBCHEM_EXACT_MASS>  (1) 
1920.053785

>  <PUBCHEM_MOLECULAR_FORMULA>  (1) 
C95H156N8O28P2

>  <PUBCHEM_MOLECULAR_WEIGHT>  (1) 
1920.2

>  <PUBCHEM_OPENEYE_CAN_SMILES>  (1) 
CC(C(=O)NC(CCC(=O)NC(CCCC(C(=O)O)N)C(=O)NC(C)C(=O)NC(C)C(=O)O)C(=O)O)NC(=O)C(C)OC1C(C(OC(C1OC2C(C(C(C(O2)CO)O)O)NC(=O)C)CO)OP(=O)(O)OP(=O)(O)OCC=C(C)CCC=C(C)CCC=C(C)CCC=C(C)CCC=C(C)CCC=C(C)CCC=C(C)CCC=C(C)CCC=C(C)CCC=C(C)CCC=C(C)C)NC(=O)C

>  <PUBCHEM_OPENEYE_ISO_SMILES>  (1) 
CC(C(=O)NC(CCC(=O)NC(CCCC(C(=O)O)N)C(=O)NC(C)C(=O)NC(C)C(=O)O)C(=O)O)NC(=O)C(C)OC1C(C(OC(C1OC2C(C(C(C(O2)CO)O)O)NC(=O)C)CO)OP(=O)(O)OP(=O)(O)OCC=C(C)CCC=C(C)CCC=C(C)CCC=C(C)CCC=C(C)CCC=C(C)CCC=C(C)CCC=C(C)CCC=C(C)CCC=C(C)CCC=C(C)C)NC(=O)C

>  <PUBCHEM_CACTVS_TPSA>  (1) 
562

>  <PUBCHEM_MONOISOTOPIC_WEIGHT>  (1) 
1919.05043

>  <PUBCHEM_TOTAL_CHARGE>  (1) 
0

>  <PUBCHEM_HEAVY_ATOM_COUNT>  (1) 
133

>  <PUBCHEM_ATOM_DEF_STEREO_COUNT>  (1) 
0

>  <PUBCHEM_ATOM_UDEF_STEREO_COUNT>  (1) 
17

>  <PUBCHEM_BOND_DEF_STEREO_COUNT>  (1) 
0

>  <PUBCHEM_BOND_UDEF_STEREO_COUNT>  (1) 
10

>  <PUBCHEM_ISOTOPIC_ATOM_COUNT>  (1) 
0

>  <PUBCHEM_COMPONENT_COUNT>  (1) 
1

>  <PUBCHEM_CACTVS_TAUTO_COUNT>  (1) 
-1

>  <PUBCHEM_COORDINATE_TYPE>  (1) 
1
5
255

>  <PUBCHEM_BONDANNOTATIONS>  (1) 
100  101  1
105  106  1
110  112  1
114  117  1
119  120  1
124  125  1
39  3  3
43  3  3
41  31  3
44  32  3
79  37  3
42  49  3
48  50  3
51  54  3
58  59  3
40  6  3
61  63  3
65  67  1
45  7  3
72  73  3
74  78  1
46  8  3
81  84  3
87  88  1
89  92  3
47  9  3
95  96  1

$$$$
