273
     RDKit          2D

  7  6  0  0  0  0  0  0  0  0999 V2000
    3.8971    0.3214    0.0000 N   0  0  0  0  0  0  0  0  0  0  0  0
   -3.8971    0.3214    0.0000 N   0  0  0  0  0  0  0  0  0  0  0  0
   -0.0000   -0.4286    0.0000 C   0  0  0  0  0  0  0  0  0  0  0  0
    1.2990    0.3214    0.0000 C   0  0  0  0  0  0  0  0  0  0  0  0
   -1.2990    0.3214    0.0000 C   0  0  0  0  0  0  0  0  0  0  0  0
    2.5981   -0.4286    0.0000 C   0  0  0  0  0  0  0  0  0  0  0  0
   -2.5981   -0.4286    0.0000 C   0  0  0  0  0  0  0  0  0  0  0  0
  1  6  1  0
  2  7  1  0
  3  4  1  0
  3  5  1  0
  4  6  1  0
  5  7  1  0
M  END
>  <PUBCHEM_COMPOUND_CID>  (1) 
273

>  <PUBCHEM_COMPOUND_CANONICALIZED>  (1) 
1

>  <PUBCHEM_CACTVS_COMPLEXITY>  (1) 
25.3

>  <PUBCHEM_CACTVS_HBOND_ACCEPTOR>  (1) 
2

>  <PUBCHEM_CACTVS_HBOND_DONOR>  (1) 
2

>  <PUBCHEM_CACTVS_ROTATABLE_BOND>  (1) 
4

>  <PUBCHEM_CACTVS_SUBSKEYS>  (1) 
AAADccBjAAAAAAAAAAAAAAAAAAAAAAAAAAAAAAAAAAAAAAAAAAAAHAAQAAAACADBAAQAAABAAAAAAAAAAAAAAAAAAAAAAIAAAAAAAAIAgAAAAAAAEAAAAAAQAAAAAAAAAAAAAAAAAAAAAAAAAAAAAAAAAA==

>  <PUBCHEM_IUPAC_OPENEYE_NAME>  (1) 
pentane-1,5-diamine

>  <PUBCHEM_IUPAC_CAS_NAME>  (1) 
pentane-1,5-diamine

>  <PUBCHEM_IUPAC_NAME_MARKUP>  (1) 
pentane-1,5-diamine

>  <PUBCHEM_IUPAC_NAME>  (1) 
pentane-1,5-diamine

>  <PUBCHEM_IUPAC_SYSTEMATIC_NAME>  (1) 
pentane-1,5-diamine

>  <PUBCHEM_IUPAC_TRADITIONAL_NAME>  (1) 
cadaverine

>  <PUBCHEM_IUPAC_INCHI>  (1) 
InChI=1S/C5H14N2/c6-4-2-1-3-5-7/h1-7H2

>  <PUBCHEM_IUPAC_INCHIKEY>  (1) 
VHRGRCVQAFMJIZ-UHFFFAOYSA-N

>  <PUBCHEM_XLOGP3_AA>  (1) 
-0.6

>  <PUBCHEM_EXACT_MASS>  (1) 
102.115698

>  <PUBCHEM_MOLECULAR_FORMULA>  (1) 
C5H14N2

>  <PUBCHEM_MOLECULAR_WEIGHT>  (1) 
102.18

>  <PUBCHEM_OPENEYE_CAN_SMILES>  (1) 
C(CCN)CCN

>  <PUBCHEM_OPENEYE_ISO_SMILES>  (1) 
C(CCN)CCN

>  <PUBCHEM_CACTVS_TPSA>  (1) 
52

>  <PUBCHEM_MONOISOTOPIC_WEIGHT>  (1) 
102.115698

>  <PUBCHEM_TOTAL_CHARGE>  (1) 
0

>  <PUBCHEM_HEAVY_ATOM_COUNT>  (1) 
7

>  <PUBCHEM_ATOM_DEF_STEREO_COUNT>  (1) 
0

>  <PUBCHEM_ATOM_UDEF_STEREO_COUNT>  (1) 
0

>  <PUBCHEM_BOND_DEF_STEREO_COUNT>  (1) 
0

>  <PUBCHEM_BOND_UDEF_STEREO_COUNT>  (1) 
0

>  <PUBCHEM_ISOTOPIC_ATOM_COUNT>  (1) 
0

>  <PUBCHEM_COMPONENT_COUNT>  (1) 
1

>  <PUBCHEM_CACTVS_TAUTO_COUNT>  (1) 
-1

>  <PUBCHEM_COORDINATE_TYPE>  (1) 
1
5
255

$$$$
