274
     RDKit          2D

 22 25  0  0  1  0  0  0  0  0999 V2000
    4.9953    0.1477    0.0000 P   0  0  0  0  0  0  0  0  0  0  0  0
    0.6117    1.0626    0.0000 O   0  0  0  0  0  0  0  0  0  0  0  0
    3.9203   -0.8984    0.0000 O   0  0  0  0  0  0  0  0  0  0  0  0
    4.6269    1.6018    0.0000 O   0  0  0  0  0  0  0  0  0  0  0  0
    1.1088   -2.7868    0.0000 O   0  0  0  0  0  0  0  0  0  0  0  0
    5.8388   -1.0927    0.0000 O   0  0  0  0  0  0  0  0  0  0  0  0
    6.3633    0.7630    0.0000 O   0  0  0  0  0  0  0  0  0  0  0  0
   -1.3990   -0.6987    0.0000 N   0  0  0  0  0  0  0  0  0  0  0  0
   -3.4524   -1.9926    0.0000 N   0  0  0  0  0  0  0  0  0  0  0  0
   -2.6098    1.7600    0.0000 N   0  0  0  0  0  0  0  0  0  0  0  0
   -5.2059    1.6595    0.0000 N   0  0  0  0  0  0  0  0  0  0  0  0
   -6.4169   -0.6391    0.0000 N   0  0  0  0  0  0  0  0  0  0  0  0
    2.4768   -0.4904    0.0000 C   0  0  0  0  0  0  0  0  0  0  0  0
    2.1084    0.9637    0.0000 C   0  0  0  0  0  0  0  0  0  0  0  0
    1.2078   -1.2901    0.0000 C   0  0  0  0  0  0  0  0  0  0  0  0
    0.0551   -0.3303    0.0000 C   0  0  0  0  0  0  0  0  0  0  0  0
    3.1835    2.0097    0.0000 C   0  0  0  0  0  0  0  0  0  0  0  0
   -2.5517    0.2611    0.0000 C   0  0  0  0  0  0  0  0  0  0  0  0
   -1.9556   -2.0916    0.0000 C   0  0  0  0  0  0  0  0  0  0  0  0
   -3.8208   -0.5386    0.0000 C   0  0  0  0  0  0  0  0  0  0  0  0
   -5.1478    0.1606    0.0000 C   0  0  0  0  0  0  0  0  0  0  0  0
   -3.9368    2.4592    0.0000 C   0  0  0  0  0  0  0  0  0  0  0  0
  1  3  1  0
  1  4  1  0
  1  6  1  0
  1  7  2  0
  2 14  1  0
  2 16  1  0
  3 13  1  0
  4 17  1  0
  5 15  1  0
  8 16  1  0
  8 18  1  0
  8 19  1  0
  9 19  2  0
  9 20  1  0
 10 18  1  0
 10 22  2  0
 11 21  2  0
 11 22  1  0
 12 21  1  0
 13 14  1  0
 13 15  1  0
 14 17  1  0
 15 16  1  0
 18 20  2  0
 20 21  1  0
M  END
>  <PUBCHEM_COMPOUND_CID>  (1) 
274

>  <PUBCHEM_COMPOUND_CANONICALIZED>  (1) 
1

>  <PUBCHEM_CACTVS_COMPLEXITY>  (1) 
498

>  <PUBCHEM_CACTVS_HBOND_ACCEPTOR>  (1) 
10

>  <PUBCHEM_CACTVS_HBOND_DONOR>  (1) 
3

>  <PUBCHEM_CACTVS_ROTATABLE_BOND>  (1) 
1

>  <PUBCHEM_CACTVS_SUBSKEYS>  (1) 
AAADccBzuAIAAAAAAAAAAAAAAAAAAWJAAAAsSAAAAAAAAFgB+AAAHgAQCCAACBzhlwYF8L9MFxCgQQZhZICAgC0REKABUCAoVBCDWAJAyEAeRAgPAALTACDwMAIAAAAAAAAAAAAAAAAAAAAAAAAAAAAAAA==

>  <PUBCHEM_IUPAC_OPENEYE_NAME>  (1) 
6-(6-aminopurin-9-yl)-2-hydroxy-2-oxo-4a,6,7,7a-tetrahydro-4H-furo[3,2-d][1,3,2]dioxaphosphinin-7-ol

>  <PUBCHEM_IUPAC_CAS_NAME>  (1) 
6-(6-aminopurin-9-yl)-2-hydroxy-2-oxo-4a,6,7,7a-tetrahydro-4H-furo[3,2-d][1,3,2]dioxaphosphorin-7-ol

>  <PUBCHEM_IUPAC_NAME_MARKUP>  (1) 
6-(6-aminopurin-9-yl)-2-hydroxy-2-oxo-4<I>a</I>,6,7,7<I>a</I>-tetrahydro-4<I>H</I>-furo[3,2-d][1,3,2]dioxaphosphinin-7-ol

>  <PUBCHEM_IUPAC_NAME>  (1) 
6-(6-aminopurin-9-yl)-2-hydroxy-2-oxo-4a,6,7,7a-tetrahydro-4H-furo[3,2-d][1,3,2]dioxaphosphinin-7-ol

>  <PUBCHEM_IUPAC_SYSTEMATIC_NAME>  (1) 
6-(6-aminopurin-9-yl)-2-oxidanyl-2-oxidanylidene-4a,6,7,7a-tetrahydro-4H-furo[3,2-d][1,3,2]dioxaphosphinin-7-ol

>  <PUBCHEM_IUPAC_TRADITIONAL_NAME>  (1) 
6-adenin-9-yl-2-hydroxy-2-keto-4a,6,7,7a-tetrahydro-4H-furo[3,2-d][1,3,2]dioxaphosphorin-7-ol

>  <PUBCHEM_IUPAC_INCHI>  (1) 
InChI=1S/C10H12N5O6P/c11-8-5-9(13-2-12-8)15(3-14-5)10-6(16)7-4(20-10)1-19-22(17,18)21-7/h2-4,6-7,10,16H,1H2,(H,17,18)(H2,11,12,13)

>  <PUBCHEM_IUPAC_INCHIKEY>  (1) 
IVOMOUWHDPKRLL-UHFFFAOYSA-N

>  <PUBCHEM_XLOGP3_AA>  (1) 
-2.6

>  <PUBCHEM_EXACT_MASS>  (1) 
329.05252

>  <PUBCHEM_MOLECULAR_FORMULA>  (1) 
C10H12N5O6P

>  <PUBCHEM_MOLECULAR_WEIGHT>  (1) 
329.21

>  <PUBCHEM_OPENEYE_CAN_SMILES>  (1) 
C1C2C(C(C(O2)N3C=NC4=C(N=CN=C43)N)O)OP(=O)(O1)O

>  <PUBCHEM_OPENEYE_ISO_SMILES>  (1) 
C1C2C(C(C(O2)N3C=NC4=C(N=CN=C43)N)O)OP(=O)(O1)O

>  <PUBCHEM_CACTVS_TPSA>  (1) 
155

>  <PUBCHEM_MONOISOTOPIC_WEIGHT>  (1) 
329.05252

>  <PUBCHEM_TOTAL_CHARGE>  (1) 
0

>  <PUBCHEM_HEAVY_ATOM_COUNT>  (1) 
22

>  <PUBCHEM_ATOM_DEF_STEREO_COUNT>  (1) 
0

>  <PUBCHEM_ATOM_UDEF_STEREO_COUNT>  (1) 
4

>  <PUBCHEM_BOND_DEF_STEREO_COUNT>  (1) 
0

>  <PUBCHEM_BOND_UDEF_STEREO_COUNT>  (1) 
0

>  <PUBCHEM_ISOTOPIC_ATOM_COUNT>  (1) 
0

>  <PUBCHEM_COMPONENT_COUNT>  (1) 
1

>  <PUBCHEM_CACTVS_TAUTO_COUNT>  (1) 
-1

>  <PUBCHEM_COORDINATE_TYPE>  (1) 
1
5
255

>  <PUBCHEM_BONDANNOTATIONS>  (1) 
10  18  8
10  22  8
11  21  8
11  22  8
14  17  3
18  20  8
20  21  8
13  3  3
15  5  3
16  8  3
8  18  8
8  19  8
9  19  8
9  20  8

$$$$
