279
     RDKit          2D

 12 11  0  0  1  0  0  0  0  0999 V2000
    2.3098   -1.2902    0.0000 O   0  0  0  0  0  0  0  0  0  0  0  0
   -4.0925    0.0364    0.0000 O   0  0  0  0  0  0  0  0  0  0  0  0
    0.3702   -3.0188    0.0000 O   0  0  0  0  0  0  0  0  0  0  0  0
   -2.1529    1.7650    0.0000 O   0  0  0  0  0  0  0  0  0  0  0  0
    2.7807    0.1340    0.0000 O   0  0  0  0  0  0  0  0  0  0  0  0
    0.3139    0.9495    0.0000 N   0  0  0  0  0  0  0  0  0  0  0  0
    2.2535    2.6780    0.0000 N   0  0  0  0  0  0  0  0  0  0  0  0
   -0.1569   -0.4747    0.0000 C   0  0  0  0  0  0  0  0  0  0  0  0
   -1.6257   -0.7791    0.0000 C   0  0  0  0  0  0  0  0  0  0  0  0
    0.8410   -1.5946    0.0000 C   0  0  0  0  0  0  0  0  0  0  0  0
   -2.6237    0.3408    0.0000 C   0  0  0  0  0  0  0  0  0  0  0  0
    1.7827    1.2538    0.0000 C   0  0  0  0  0  0  0  0  0  0  0  0
  1 10  1  0
  2 11  1  0
  3 10  2  0
  4 11  2  0
  5 12  2  0
  6  8  1  0
  6 12  1  0
  7 12  1  0
  8  9  1  0
  8 10  1  0
  9 11  1  0
M  END
>  <PUBCHEM_COMPOUND_CID>  (1) 
279

>  <PUBCHEM_COMPOUND_CANONICALIZED>  (1) 
1

>  <PUBCHEM_CACTVS_COMPLEXITY>  (1) 
214

>  <PUBCHEM_CACTVS_HBOND_ACCEPTOR>  (1) 
5

>  <PUBCHEM_CACTVS_HBOND_DONOR>  (1) 
4

>  <PUBCHEM_CACTVS_ROTATABLE_BOND>  (1) 
4

>  <PUBCHEM_CACTVS_SUBSKEYS>  (1) 
AAADccBjOAAAAAAAAAAAAAAAAAAAAAAAAAAAAAAAAAAAAAAAAAAAHgAQCAAACCjBgAQBCALAAgAIAACQGAAAAAAAAAAAAIGIAACCABgAACAEQAAGFgIQAABDAAAAAAAAAAAAAAAAAAAAAAAAAAAAAAAAAA==

>  <PUBCHEM_IUPAC_OPENEYE_NAME>  (1) 
2-ureidobutanedioic acid

>  <PUBCHEM_IUPAC_CAS_NAME>  (1) 
2-(carbamoylamino)butanedioic acid

>  <PUBCHEM_IUPAC_NAME_MARKUP>  (1) 
2-(carbamoylamino)butanedioic acid

>  <PUBCHEM_IUPAC_NAME>  (1) 
2-(carbamoylamino)butanedioic acid

>  <PUBCHEM_IUPAC_SYSTEMATIC_NAME>  (1) 
2-(aminocarbonylamino)butanedioic acid

>  <PUBCHEM_IUPAC_TRADITIONAL_NAME>  (1) 
2-ureidosuccinic acid

>  <PUBCHEM_IUPAC_INCHI>  (1) 
InChI=1S/C5H8N2O5/c6-5(12)7-2(4(10)11)1-3(8)9/h2H,1H2,(H,8,9)(H,10,11)(H3,6,7,12)

>  <PUBCHEM_IUPAC_INCHIKEY>  (1) 
HLKXYZVTANABHZ-UHFFFAOYSA-N

>  <PUBCHEM_XLOGP3_AA>  (1) 
-1.9

>  <PUBCHEM_EXACT_MASS>  (1) 
176.043321

>  <PUBCHEM_MOLECULAR_FORMULA>  (1) 
C5H8N2O5

>  <PUBCHEM_MOLECULAR_WEIGHT>  (1) 
176.13

>  <PUBCHEM_OPENEYE_CAN_SMILES>  (1) 
C(C(C(=O)O)NC(=O)N)C(=O)O

>  <PUBCHEM_OPENEYE_ISO_SMILES>  (1) 
C(C(C(=O)O)NC(=O)N)C(=O)O

>  <PUBCHEM_CACTVS_TPSA>  (1) 
130

>  <PUBCHEM_MONOISOTOPIC_WEIGHT>  (1) 
176.043321

>  <PUBCHEM_TOTAL_CHARGE>  (1) 
0

>  <PUBCHEM_HEAVY_ATOM_COUNT>  (1) 
12

>  <PUBCHEM_ATOM_DEF_STEREO_COUNT>  (1) 
0

>  <PUBCHEM_ATOM_UDEF_STEREO_COUNT>  (1) 
1

>  <PUBCHEM_BOND_DEF_STEREO_COUNT>  (1) 
0

>  <PUBCHEM_BOND_UDEF_STEREO_COUNT>  (1) 
0

>  <PUBCHEM_ISOTOPIC_ATOM_COUNT>  (1) 
0

>  <PUBCHEM_COMPONENT_COUNT>  (1) 
1

>  <PUBCHEM_CACTVS_TAUTO_COUNT>  (1) 
-1

>  <PUBCHEM_COORDINATE_TYPE>  (1) 
1
5
255

>  <PUBCHEM_BONDANNOTATIONS>  (1) 
8  9  3

$$$$
