28
     RDKit          2D

 11 10  0  0  0  0  0  0  0  0999 V2000
   -4.3384    0.5594    0.0000 O   0  0  0  0  0  0  0  0  0  0  0  0
   -3.2267   -1.7889    0.0000 O   0  0  0  0  0  0  0  0  0  0  0  0
    4.6637   -0.9280    0.0000 O   0  0  0  0  0  0  0  0  0  0  0  0
    3.5521    1.4203    0.0000 O   0  0  0  0  0  0  0  0  0  0  0  0
   -1.6269    1.8430    0.0000 N   0  0  0  0  0  0  0  0  0  0  0  0
   -1.7489    0.3480    0.0000 C   0  0  0  0  0  0  0  0  0  0  0  0
   -0.5152   -0.5052    0.0000 C   0  0  0  0  0  0  0  0  0  0  0  0
    0.8406    0.1366    0.0000 C   0  0  0  0  0  0  0  0  0  0  0  0
    2.0743   -0.7166    0.0000 C   0  0  0  0  0  0  0  0  0  0  0  0
   -3.1047   -0.2938    0.0000 C   0  0  0  0  0  0  0  0  0  0  0  0
    3.4300   -0.0748    0.0000 C   0  0  0  0  0  0  0  0  0  0  0  0
  1 10  1  0
  2 10  2  0
  3 11  1  0
  4 11  2  0
  5  6  1  0
  6  7  2  3
  6 10  1  0
  7  8  1  0
  8  9  2  3
  9 11  1  0
M  END
>  <PUBCHEM_COMPOUND_CID>  (1) 
28

>  <PUBCHEM_COMPOUND_CANONICALIZED>  (1) 
1

>  <PUBCHEM_CACTVS_COMPLEXITY>  (1) 
229

>  <PUBCHEM_CACTVS_HBOND_ACCEPTOR>  (1) 
5

>  <PUBCHEM_CACTVS_HBOND_DONOR>  (1) 
3

>  <PUBCHEM_CACTVS_ROTATABLE_BOND>  (1) 
3

>  <PUBCHEM_CACTVS_SUBSKEYS>  (1) 
AAADcYBiOAAAAAAAAAAAAAAAAAAAAAAAAAAAAAAAAAAAAAAAAAAAHgAQCAAACAiBgAAACABAAgCIACTSSAAAAAAAAgAICACAAEAKBAAAAQAAEAAAAAAAkYAAAAAAAAAAAAAAAAAAAAAAAAAAAAAAAAAAAA==

>  <PUBCHEM_IUPAC_OPENEYE_NAME>  (1) 
2-aminohexa-2,4-dienedioic acid

>  <PUBCHEM_IUPAC_CAS_NAME>  (1) 
2-aminohexa-2,4-dienedioic acid

>  <PUBCHEM_IUPAC_NAME_MARKUP>  (1) 
2-aminohexa-2,4-dienedioic acid

>  <PUBCHEM_IUPAC_NAME>  (1) 
2-aminohexa-2,4-dienedioic acid

>  <PUBCHEM_IUPAC_SYSTEMATIC_NAME>  (1) 
2-azanylhexa-2,4-dienedioic acid

>  <PUBCHEM_IUPAC_TRADITIONAL_NAME>  (1) 
2-aminomuconic acid

>  <PUBCHEM_IUPAC_INCHI>  (1) 
InChI=1S/C6H7NO4/c7-4(6(10)11)2-1-3-5(8)9/h1-3H,7H2,(H,8,9)(H,10,11)

>  <PUBCHEM_IUPAC_INCHIKEY>  (1) 
ZRHONLCTYUYMIQ-UHFFFAOYSA-N

>  <PUBCHEM_XLOGP3_AA>  (1) 
-0.3

>  <PUBCHEM_EXACT_MASS>  (1) 
157.037508

>  <PUBCHEM_MOLECULAR_FORMULA>  (1) 
C6H7NO4

>  <PUBCHEM_MOLECULAR_WEIGHT>  (1) 
157.12

>  <PUBCHEM_OPENEYE_CAN_SMILES>  (1) 
C(=CC(=O)O)C=C(C(=O)O)N

>  <PUBCHEM_OPENEYE_ISO_SMILES>  (1) 
C(=CC(=O)O)C=C(C(=O)O)N

>  <PUBCHEM_CACTVS_TPSA>  (1) 
101

>  <PUBCHEM_MONOISOTOPIC_WEIGHT>  (1) 
157.037508

>  <PUBCHEM_TOTAL_CHARGE>  (1) 
0

>  <PUBCHEM_HEAVY_ATOM_COUNT>  (1) 
11

>  <PUBCHEM_ATOM_DEF_STEREO_COUNT>  (1) 
0

>  <PUBCHEM_ATOM_UDEF_STEREO_COUNT>  (1) 
0

>  <PUBCHEM_BOND_DEF_STEREO_COUNT>  (1) 
0

>  <PUBCHEM_BOND_UDEF_STEREO_COUNT>  (1) 
2

>  <PUBCHEM_ISOTOPIC_ATOM_COUNT>  (1) 
0

>  <PUBCHEM_COMPONENT_COUNT>  (1) 
1

>  <PUBCHEM_CACTVS_TAUTO_COUNT>  (1) 
-1

>  <PUBCHEM_COORDINATE_TYPE>  (1) 
1
5
255

>  <PUBCHEM_BONDANNOTATIONS>  (1) 
6  7  1
8  9  1

$$$$
