284
     RDKit          2D

  3  2  0  0  0  0  0  0  0  0999 V2000
    1.2990    0.2500    0.0000 O   0  0  0  0  0  0  0  0  0  0  0  0
   -1.2990    0.2500    0.0000 O   0  0  0  0  0  0  0  0  0  0  0  0
   -0.0000   -0.5000    0.0000 C   0  0  0  0  0  0  0  0  0  0  0  0
  1  3  1  0
  2  3  2  0
M  END
>  <PUBCHEM_COMPOUND_CID>  (1) 
284

>  <PUBCHEM_COMPOUND_CANONICALIZED>  (1) 
1

>  <PUBCHEM_CACTVS_COMPLEXITY>  (1) 
10.3

>  <PUBCHEM_CACTVS_HBOND_ACCEPTOR>  (1) 
2

>  <PUBCHEM_CACTVS_HBOND_DONOR>  (1) 
1

>  <PUBCHEM_CACTVS_ROTATABLE_BOND>  (1) 
0

>  <PUBCHEM_CACTVS_SUBSKEYS>  (1) 
AAADcQAAMAAAAAAAAAAAAAAAAAAAAAAAAAAAAAAAAAAAAAAAAAAAEgAACAAAAAAAAAMACAAAAgAIAAAAiAAAAAAAAAAAAAAAAAAAEAAAAAAAAAAAAAAAAAAAAAAAAAAAAAAAAAAAAAAAAAAAAAAAAAAAAA==

>  <PUBCHEM_IUPAC_OPENEYE_NAME>  (1) 
formic acid

>  <PUBCHEM_IUPAC_CAS_NAME>  (1) 
formic acid

>  <PUBCHEM_IUPAC_NAME_MARKUP>  (1) 
formic acid

>  <PUBCHEM_IUPAC_NAME>  (1) 
formic acid

>  <PUBCHEM_IUPAC_SYSTEMATIC_NAME>  (1) 
methanoic acid

>  <PUBCHEM_IUPAC_TRADITIONAL_NAME>  (1) 
formic acid

>  <PUBCHEM_IUPAC_INCHI>  (1) 
InChI=1S/CH2O2/c2-1-3/h1H,(H,2,3)

>  <PUBCHEM_IUPAC_INCHIKEY>  (1) 
BDAGIHXWWSANSR-UHFFFAOYSA-N

>  <PUBCHEM_XLOGP3_AA>  (1) 
-0.2

>  <PUBCHEM_EXACT_MASS>  (1) 
46.005479

>  <PUBCHEM_MOLECULAR_FORMULA>  (1) 
CH2O2

>  <PUBCHEM_MOLECULAR_WEIGHT>  (1) 
46.025

>  <PUBCHEM_OPENEYE_CAN_SMILES>  (1) 
C(=O)O

>  <PUBCHEM_OPENEYE_ISO_SMILES>  (1) 
C(=O)O

>  <PUBCHEM_CACTVS_TPSA>  (1) 
37.3

>  <PUBCHEM_MONOISOTOPIC_WEIGHT>  (1) 
46.005479

>  <PUBCHEM_TOTAL_CHARGE>  (1) 
0

>  <PUBCHEM_HEAVY_ATOM_COUNT>  (1) 
3

>  <PUBCHEM_ATOM_DEF_STEREO_COUNT>  (1) 
0

>  <PUBCHEM_ATOM_UDEF_STEREO_COUNT>  (1) 
0

>  <PUBCHEM_BOND_DEF_STEREO_COUNT>  (1) 
0

>  <PUBCHEM_BOND_UDEF_STEREO_COUNT>  (1) 
0

>  <PUBCHEM_ISOTOPIC_ATOM_COUNT>  (1) 
0

>  <PUBCHEM_COMPONENT_COUNT>  (1) 
1

>  <PUBCHEM_CACTVS_TAUTO_COUNT>  (1) 
-1

>  <PUBCHEM_COORDINATE_TYPE>  (1) 
1
5
255

$$$$
