291
     RDKit          2D

 31 32  0  0  1  0  0  0  0  0999 V2000
   -1.9008    2.5729    0.0000 P   0  0  0  0  0  0  0  0  0  0  0  0
   -4.4842    2.2972    0.0000 P   0  0  0  0  0  0  0  0  0  0  0  0
    2.2988    0.6177    0.0000 O   0  0  0  0  0  0  0  0  0  0  0  0
    0.3134   -2.7174    0.0000 O   0  0  0  0  0  0  0  0  0  0  0  0
    3.5594   -3.0533    0.0000 O   0  0  0  0  0  0  0  0  0  0  0  0
   -0.5295    1.9651    0.0000 O   0  0  0  0  0  0  0  0  0  0  0  0
   -5.6963    1.4136    0.0000 O   0  0  0  0  0  0  0  0  0  0  0  0
   -3.2721    3.1808    0.0000 O   0  0  0  0  0  0  0  0  0  0  0  0
    5.4262   -2.6104    0.0000 O   0  0  0  0  0  0  0  0  0  0  0  0
   -1.2929    3.9442    0.0000 O   0  0  0  0  0  0  0  0  0  0  0  0
   -2.5087    1.2016    0.0000 O   0  0  0  0  0  0  0  0  0  0  0  0
   -3.6006    1.0851    0.0000 O   0  0  0  0  0  0  0  0  0  0  0  0
   -5.3678    3.5093    0.0000 O   0  0  0  0  0  0  0  0  0  0  0  0
    4.8819   -0.0699    0.0000 N   0  0  0  0  0  0  0  0  0  0  0  0
   -6.5900   -2.4531    0.0000 N   0  0  0  0  0  0  0  0  0  0  0  0
    7.3541   -0.8688    0.0000 N   0  0  0  0  0  0  0  0  0  0  0  0
    9.2820    0.8728    0.0000 N   0  0  0  0  0  0  0  0  0  0  0  0
    1.3153   -1.6011    0.0000 C   0  0  0  0  0  0  0  0  0  0  0  0
    2.8073   -1.7555    0.0000 C   0  0  0  0  0  0  0  0  0  0  0  0
    1.0010   -0.1344    0.0000 C   0  0  0  0  0  0  0  0  0  0  0  0
    3.4152   -0.3842    0.0000 C   0  0  0  0  0  0  0  0  0  0  0  0
   -0.3703    0.4735    0.0000 C   0  0  0  0  0  0  0  0  0  0  0  0
   -6.7492   -0.9616    0.0000 C   0  0  0  0  0  0  0  0  0  0  0  0
    5.3431    1.3574    0.0000 C   0  0  0  0  0  0  0  0  0  0  0  0
    5.8874   -1.1830    0.0000 C   0  0  0  0  0  0  0  0  0  0  0  0
   -8.0815   -2.6123    0.0000 C   0  0  0  0  0  0  0  0  0  0  0  0
   -5.0985   -2.2939    0.0000 C   0  0  0  0  0  0  0  0  0  0  0  0
   -6.4308   -3.9447    0.0000 C   0  0  0  0  0  0  0  0  0  0  0  0
   -5.5371   -0.0780    0.0000 C   0  0  0  0  0  0  0  0  0  0  0  0
    6.8098    1.6716    0.0000 C   0  0  0  0  0  0  0  0  0  0  0  0
    7.8153    0.5585    0.0000 C   0  0  0  0  0  0  0  0  0  0  0  0
  1  6  1  0
  1  8  1  0
  1 10  1  0
  1 11  2  0
  2  7  1  0
  2  8  1  0
  2 12  1  0
  2 13  2  0
  3 20  1  0
  3 21  1  0
  4 18  1  0
  5 19  1  0
  6 22  1  0
  7 29  1  0
  9 25  2  0
 14 21  1  0
 14 24  1  0
 14 25  1  0
 15 23  1  0
 15 26  1  0
 15 27  1  0
 15 28  1  0
 16 25  1  0
 16 31  2  0
 17 31  1  0
 18 19  1  0
 18 20  1  0
 19 21  1  0
 20 22  1  0
 23 29  1  0
 24 30  2  0
 30 31  1  0
M  CHG  1  15   1
M  END
>  <PUBCHEM_COMPOUND_CID>  (1) 
291

>  <PUBCHEM_COMPOUND_CANONICALIZED>  (1) 
1

>  <PUBCHEM_CACTVS_COMPLEXITY>  (1) 
830

>  <PUBCHEM_CACTVS_HBOND_ACCEPTOR>  (1) 
11

>  <PUBCHEM_CACTVS_HBOND_DONOR>  (1) 
5

>  <PUBCHEM_CACTVS_ROTATABLE_BOND>  (1) 
10

>  <PUBCHEM_CACTVS_SUBSKEYS>  (1) 
AAADceBzvAMAAAAAAAAAAAAAAAAAASAAAAAgAAAAAAAAAAAAAAAAHgAQCCAACBThgAYDAANABxCoQCJmdICAAAEAAgAIAAAYABCDEAIAgAAOQAAHFgITAADwMAIAAAAAAAAAAAAAAAAAAAAAAAAAAAAAAA==

>  <PUBCHEM_IUPAC_OPENEYE_NAME>  (1) 
2-[[[5-(4-amino-2-oxo-pyrimidin-1-yl)-3,4-dihydroxy-tetrahydrofuran-2-yl]methoxy-hydroxy-phosphoryl]oxy-hydroxy-phosphoryl]oxyethyl-trimethyl-ammonium

>  <PUBCHEM_IUPAC_CAS_NAME>  (1) 
2-[[[5-(4-amino-2-oxo-1-pyrimidinyl)-3,4-dihydroxy-2-oxolanyl]methoxy-hydroxyphosphoryl]oxy-hydroxyphosphoryl]oxyethyl-trimethylammonium

>  <PUBCHEM_IUPAC_NAME_MARKUP>  (1) 
2-[[[5-(4-amino-2-oxopyrimidin-1-yl)-3,4-dihydroxyoxolan-2-yl]methoxy-hydroxyphosphoryl]oxy-hydroxyphosphoryl]oxyethyl-trimethylazanium

>  <PUBCHEM_IUPAC_NAME>  (1) 
2-[[[5-(4-amino-2-oxopyrimidin-1-yl)-3,4-dihydroxyoxolan-2-yl]methoxy-hydroxyphosphoryl]oxy-hydroxyphosphoryl]oxyethyl-trimethylazanium

>  <PUBCHEM_IUPAC_SYSTEMATIC_NAME>  (1) 
2-[[[5-(4-azanyl-2-oxidanylidene-pyrimidin-1-yl)-3,4-bis(oxidanyl)oxolan-2-yl]methoxy-oxidanyl-phosphoryl]oxy-oxidanyl-phosphoryl]oxyethyl-trimethyl-azanium

>  <PUBCHEM_IUPAC_TRADITIONAL_NAME>  (1) 
2-[[[5-(4-amino-2-keto-pyrimidin-1-yl)-3,4-dihydroxy-tetrahydrofuran-2-yl]methoxy-hydroxy-phosphoryl]oxy-hydroxy-phosphoryl]oxyethyl-trimethyl-ammonium

>  <PUBCHEM_IUPAC_INCHI>  (1) 
InChI=1S/C14H26N4O11P2/c1-18(2,3)6-7-26-30(22,23)29-31(24,25)27-8-9-11(19)12(20)13(28-9)17-5-4-10(15)16-14(17)21/h4-5,9,11-13,19-20H,6-8H2,1-3H3,(H3-,15,16,21,22,23,24,25)/p+1

>  <PUBCHEM_IUPAC_INCHIKEY>  (1) 
RZZPDXZPRHQOCG-UHFFFAOYSA-O

>  <PUBCHEM_XLOGP3>  (1) 
-3.9

>  <PUBCHEM_EXACT_MASS>  (1) 
489.115157

>  <PUBCHEM_MOLECULAR_FORMULA>  (1) 
C14H27N4O11P2+

>  <PUBCHEM_MOLECULAR_WEIGHT>  (1) 
489.33

>  <PUBCHEM_OPENEYE_CAN_SMILES>  (1) 
C[N+](C)(C)CCOP(=O)(O)OP(=O)(O)OCC1C(C(C(O1)N2C=CC(=NC2=O)N)O)O

>  <PUBCHEM_OPENEYE_ISO_SMILES>  (1) 
C[N+](C)(C)CCOP(=O)(O)OP(=O)(O)OCC1C(C(C(O1)N2C=CC(=NC2=O)N)O)O

>  <PUBCHEM_CACTVS_TPSA>  (1) 
211

>  <PUBCHEM_MONOISOTOPIC_WEIGHT>  (1) 
489.115157

>  <PUBCHEM_TOTAL_CHARGE>  (1) 
1

>  <PUBCHEM_HEAVY_ATOM_COUNT>  (1) 
31

>  <PUBCHEM_ATOM_DEF_STEREO_COUNT>  (1) 
0

>  <PUBCHEM_ATOM_UDEF_STEREO_COUNT>  (1) 
4

>  <PUBCHEM_BOND_DEF_STEREO_COUNT>  (1) 
0

>  <PUBCHEM_BOND_UDEF_STEREO_COUNT>  (1) 
0

>  <PUBCHEM_ISOTOPIC_ATOM_COUNT>  (1) 
0

>  <PUBCHEM_COMPONENT_COUNT>  (1) 
1

>  <PUBCHEM_CACTVS_TAUTO_COUNT>  (1) 
-1

>  <PUBCHEM_COORDINATE_TYPE>  (1) 
1
5
255

>  <PUBCHEM_BONDANNOTATIONS>  (1) 
21  14  3
14  24  8
14  25  8
16  25  8
16  31  8
20  22  3
24  30  8
30  31  8
18  4  3
19  5  3

$$$$
