293
     RDKit          2D

 28 29  0  0  1  0  0  0  0  0999 V2000
   -2.8522    1.9298    0.0000 P   0  0  0  0  0  0  0  0  0  0  0  0
   -5.3842    1.3474    0.0000 P   0  0  0  0  0  0  0  0  0  0  0  0
    1.5510    0.4905    0.0000 O   0  0  0  0  0  0  0  0  0  0  0  0
   -0.0218   -3.0580    0.0000 O   0  0  0  0  0  0  0  0  0  0  0  0
    3.2411   -3.0036    0.0000 O   0  0  0  0  0  0  0  0  0  0  0  0
   -1.4181    1.4902    0.0000 O   0  0  0  0  0  0  0  0  0  0  0  0
    5.0416   -2.3408    0.0000 O   0  0  0  0  0  0  0  0  0  0  0  0
   -4.2863    2.3695    0.0000 O   0  0  0  0  0  0  0  0  0  0  0  0
   -2.4125    3.3640    0.0000 O   0  0  0  0  0  0  0  0  0  0  0  0
   -3.2919    0.4957    0.0000 O   0  0  0  0  0  0  0  0  0  0  0  0
   -6.4820    0.3252    0.0000 O   0  0  0  0  0  0  0  0  0  0  0  0
   -4.3620    0.2496    0.0000 O   0  0  0  0  0  0  0  0  0  0  0  0
   -6.4063    2.4452    0.0000 O   0  0  0  0  0  0  0  0  0  0  0  0
    4.1977    0.1164    0.0000 N   0  0  0  0  0  0  0  0  0  0  0  0
    6.7476   -0.3813    0.0000 N   0  0  0  0  0  0  0  0  0  0  0  0
    8.4536    1.5781    0.0000 N   0  0  0  0  0  0  0  0  0  0  0  0
   -6.9072   -3.6205    0.0000 N   0  0  0  0  0  0  0  0  0  0  0  0
    0.8395   -1.8300    0.0000 C   0  0  0  0  0  0  0  0  0  0  0  0
    2.3393   -1.8050    0.0000 C   0  0  0  0  0  0  0  0  0  0  0  0
    0.3523   -0.4113    0.0000 C   0  0  0  0  0  0  0  0  0  0  0  0
    2.7790   -0.3709    0.0000 C   0  0  0  0  0  0  0  0  0  0  0  0
   -1.0818    0.0284    0.0000 C   0  0  0  0  0  0  0  0  0  0  0  0
    4.4850    1.5886    0.0000 C   0  0  0  0  0  0  0  0  0  0  0  0
    5.3290   -0.8686    0.0000 C   0  0  0  0  0  0  0  0  0  0  0  0
    5.9037    2.0759    0.0000 C   0  0  0  0  0  0  0  0  0  0  0  0
    7.0350    1.0909    0.0000 C   0  0  0  0  0  0  0  0  0  0  0  0
   -6.1457   -1.1366    0.0000 C   0  0  0  0  0  0  0  0  0  0  0  0
   -7.2435   -2.1587    0.0000 C   0  0  0  0  0  0  0  0  0  0  0  0
  1  6  1  0
  1  8  1  0
  1  9  1  0
  1 10  2  0
  2  8  1  0
  2 11  1  0
  2 12  1  0
  2 13  2  0
  3 20  1  0
  3 21  1  0
  4 18  1  0
  5 19  1  0
  6 22  1  0
  7 24  2  0
 11 27  1  0
 14 21  1  0
 14 23  1  0
 14 24  1  0
 15 24  1  0
 15 26  2  0
 16 26  1  0
 17 28  1  0
 18 19  1  0
 18 20  1  0
 19 21  1  0
 20 22  1  0
 23 25  2  0
 25 26  1  0
 27 28  1  0
M  END
>  <PUBCHEM_COMPOUND_CID>  (1) 
293

>  <PUBCHEM_COMPOUND_CANONICALIZED>  (1) 
1

>  <PUBCHEM_CACTVS_COMPLEXITY>  (1) 
746

>  <PUBCHEM_CACTVS_HBOND_ACCEPTOR>  (1) 
12

>  <PUBCHEM_CACTVS_HBOND_DONOR>  (1) 
6

>  <PUBCHEM_CACTVS_ROTATABLE_BOND>  (1) 
9

>  <PUBCHEM_CACTVS_SUBSKEYS>  (1) 
AAADceBzvAMAAAAAAAAAAAAAAAAAASAAAAAgAAAAAAAAAAAAAAAAHgAQCCAACBThgAYBAANABxCoQCJmdICAAAEAAgAIAIAYABCDEAIAgAAOQAAHFgITAADwMAIAAAAAAAAAAAAAAAAAAAAAAAAAAAAAAA==

>  <PUBCHEM_IUPAC_OPENEYE_NAME>  (1) 
[2-aminoethoxy(hydroxy)phosphoryl] [5-(4-amino-2-oxo-pyrimidin-1-yl)-3,4-dihydroxy-tetrahydrofuran-2-yl]methyl hydrogen phosphate

>  <PUBCHEM_IUPAC_CAS_NAME>  (1) 
[2-aminoethoxy(hydroxy)phosphoryl] [5-(4-amino-2-oxo-1-pyrimidinyl)-3,4-dihydroxy-2-oxolanyl]methyl hydrogen phosphate

>  <PUBCHEM_IUPAC_NAME_MARKUP>  (1) 
[2-aminoethoxy(hydroxy)phosphoryl] [5-(4-amino-2-oxopyrimidin-1-yl)-3,4-dihydroxyoxolan-2-yl]methyl hydrogen phosphate

>  <PUBCHEM_IUPAC_NAME>  (1) 
[2-aminoethoxy(hydroxy)phosphoryl] [5-(4-amino-2-oxopyrimidin-1-yl)-3,4-dihydroxyoxolan-2-yl]methyl hydrogen phosphate

>  <PUBCHEM_IUPAC_SYSTEMATIC_NAME>  (1) 
[2-azanylethoxy(oxidanyl)phosphoryl] [5-(4-azanyl-2-oxidanylidene-pyrimidin-1-yl)-3,4-bis(oxidanyl)oxolan-2-yl]methyl hydrogen phosphate

>  <PUBCHEM_IUPAC_TRADITIONAL_NAME>  (1) 
[2-aminoethoxy(hydroxy)phosphoryl] [5-(4-amino-2-keto-pyrimidin-1-yl)-3,4-dihydroxy-tetrahydrofuran-2-yl]methyl hydrogen phosphate

>  <PUBCHEM_IUPAC_INCHI>  (1) 
InChI=1S/C11H20N4O11P2/c12-2-4-23-27(19,20)26-28(21,22)24-5-6-8(16)9(17)10(25-6)15-3-1-7(13)14-11(15)18/h1,3,6,8-10,16-17H,2,4-5,12H2,(H,19,20)(H,21,22)(H2,13,14,18)

>  <PUBCHEM_IUPAC_INCHIKEY>  (1) 
WVIMUEUQJFPNDK-UHFFFAOYSA-N

>  <PUBCHEM_XLOGP3>  (1) 
-7.2

>  <PUBCHEM_EXACT_MASS>  (1) 
446.060381

>  <PUBCHEM_MOLECULAR_FORMULA>  (1) 
C11H20N4O11P2

>  <PUBCHEM_MOLECULAR_WEIGHT>  (1) 
446.24

>  <PUBCHEM_OPENEYE_CAN_SMILES>  (1) 
C1=CN(C(=O)N=C1N)C2C(C(C(O2)COP(=O)(O)OP(=O)(O)OCCN)O)O

>  <PUBCHEM_OPENEYE_ISO_SMILES>  (1) 
C1=CN(C(=O)N=C1N)C2C(C(C(O2)COP(=O)(O)OP(=O)(O)OCCN)O)O

>  <PUBCHEM_CACTVS_TPSA>  (1) 
237

>  <PUBCHEM_MONOISOTOPIC_WEIGHT>  (1) 
446.060381

>  <PUBCHEM_TOTAL_CHARGE>  (1) 
0

>  <PUBCHEM_HEAVY_ATOM_COUNT>  (1) 
28

>  <PUBCHEM_ATOM_DEF_STEREO_COUNT>  (1) 
0

>  <PUBCHEM_ATOM_UDEF_STEREO_COUNT>  (1) 
4

>  <PUBCHEM_BOND_DEF_STEREO_COUNT>  (1) 
0

>  <PUBCHEM_BOND_UDEF_STEREO_COUNT>  (1) 
0

>  <PUBCHEM_ISOTOPIC_ATOM_COUNT>  (1) 
0

>  <PUBCHEM_COMPONENT_COUNT>  (1) 
1

>  <PUBCHEM_CACTVS_TAUTO_COUNT>  (1) 
-1

>  <PUBCHEM_COORDINATE_TYPE>  (1) 
1
5
255

>  <PUBCHEM_BONDANNOTATIONS>  (1) 
21  14  3
14  23  8
14  24  8
15  24  8
15  26  8
20  22  3
23  25  8
25  26  8
18  4  3
19  5  3

$$$$
