294
     RDKit          2D

 23 24  0  0  1  0  0  0  0  0999 V2000
   -0.2493    1.5494    0.0000 O   0  0  0  0  0  0  0  0  0  0  0  0
    1.2414   -0.5785    0.0000 O   0  0  0  0  0  0  0  0  0  0  0  0
   -4.0660    0.4616    0.0000 O   0  0  0  0  0  0  0  0  0  0  0  0
    0.0129   -1.4392    0.0000 O   0  0  0  0  0  0  0  0  0  0  0  0
    2.2077    3.2707    0.0000 O   0  0  0  0  0  0  0  0  0  0  0  0
    4.9269    2.0035    0.0000 O   0  0  0  0  0  0  0  0  0  0  0  0
    5.1891   -0.9850    0.0000 O   0  0  0  0  0  0  0  0  0  0  0  0
   -2.4441   -3.1605    0.0000 O   0  0  0  0  0  0  0  0  0  0  0  0
   -5.1634   -1.8933    0.0000 O   0  0  0  0  0  0  0  0  0  0  0  0
   -4.3282    3.4501    0.0000 O   0  0  0  0  0  0  0  0  0  0  0  0
    1.5036   -3.5670    0.0000 O   0  0  0  0  0  0  0  0  0  0  0  0
   -1.4778    0.6887    0.0000 C   0  0  0  0  0  0  0  0  0  0  0  0
   -1.3467   -0.8056    0.0000 C   0  0  0  0  0  0  0  0  0  0  0  0
    1.1103    0.9158    0.0000 C   0  0  0  0  0  0  0  0  0  0  0  0
   -2.8375    1.3223    0.0000 C   0  0  0  0  0  0  0  0  0  0  0  0
    2.3388    1.7764    0.0000 C   0  0  0  0  0  0  0  0  0  0  0  0
    3.6984    1.1429    0.0000 C   0  0  0  0  0  0  0  0  0  0  0  0
    3.8295   -0.3514    0.0000 C   0  0  0  0  0  0  0  0  0  0  0  0
   -2.5753   -1.6663    0.0000 C   0  0  0  0  0  0  0  0  0  0  0  0
    2.6010   -1.2121    0.0000 C   0  0  0  0  0  0  0  0  0  0  0  0
   -3.9349   -1.0327    0.0000 C   0  0  0  0  0  0  0  0  0  0  0  0
   -2.9686    2.8165    0.0000 C   0  0  0  0  0  0  0  0  0  0  0  0
    2.7321   -2.7063    0.0000 C   0  0  0  0  0  0  0  0  0  0  0  0
  1 12  1  0
  1 14  1  0
  2 14  1  0
  2 20  1  0
  3 15  1  0
  3 21  1  0
  4 13  1  0
  5 16  1  0
  6 17  1  0
  7 18  1  0
  8 19  1  0
  9 21  1  0
 10 22  1  0
 11 23  1  0
 12 13  1  0
 12 15  1  0
 13 19  1  0
 14 16  1  0
 15 22  1  0
 16 17  1  0
 17 18  1  0
 18 20  1  0
 19 21  1  0
 20 23  1  0
M  END
>  <PUBCHEM_COMPOUND_CID>  (1) 
294

>  <PUBCHEM_COMPOUND_CANONICALIZED>  (1) 
1

>  <PUBCHEM_CACTVS_COMPLEXITY>  (1) 
382

>  <PUBCHEM_CACTVS_HBOND_ACCEPTOR>  (1) 
11

>  <PUBCHEM_CACTVS_HBOND_DONOR>  (1) 
8

>  <PUBCHEM_CACTVS_ROTATABLE_BOND>  (1) 
4

>  <PUBCHEM_CACTVS_SUBSKEYS>  (1) 
AAADceBwPAAAAAAAAAAAAAAAAAAAAAAAAAAkSAAAAAAAAAAAAAAAGgAACAAACBSwgAMACAAABgAAAAAAAAAAAAAAAAAAAAAAAAAREAIAAAAiQAAFAAAHAAHAYAwAAAAAAAAAAAAAAAAAAAAAAAAAAAAAAA==

>  <PUBCHEM_IUPAC_OPENEYE_NAME>  (1) 
2-(hydroxymethyl)-6-[4,5,6-trihydroxy-2-(hydroxymethyl)tetrahydropyran-3-yl]oxy-tetrahydropyran-3,4,5-triol

>  <PUBCHEM_IUPAC_CAS_NAME>  (1) 
2-(hydroxymethyl)-6-[[4,5,6-trihydroxy-2-(hydroxymethyl)-3-oxanyl]oxy]oxane-3,4,5-triol

>  <PUBCHEM_IUPAC_NAME_MARKUP>  (1) 
2-(hydroxymethyl)-6-[4,5,6-trihydroxy-2-(hydroxymethyl)oxan-3-yl]oxyoxane-3,4,5-triol

>  <PUBCHEM_IUPAC_NAME>  (1) 
2-(hydroxymethyl)-6-[4,5,6-trihydroxy-2-(hydroxymethyl)oxan-3-yl]oxyoxane-3,4,5-triol

>  <PUBCHEM_IUPAC_SYSTEMATIC_NAME>  (1) 
2-(hydroxymethyl)-6-[2-(hydroxymethyl)-4,5,6-tris(oxidanyl)oxan-3-yl]oxy-oxane-3,4,5-triol

>  <PUBCHEM_IUPAC_TRADITIONAL_NAME>  (1) 
2-methylol-6-(4,5,6-trihydroxy-2-methylol-tetrahydropyran-3-yl)oxy-tetrahydropyran-3,4,5-triol

>  <PUBCHEM_IUPAC_INCHI>  (1) 
InChI=1S/C12H22O11/c13-1-3-5(15)6(16)9(19)12(22-3)23-10-4(2-14)21-11(20)8(18)7(10)17/h3-20H,1-2H2

>  <PUBCHEM_IUPAC_INCHIKEY>  (1) 
GUBGYTABKSRVRQ-UHFFFAOYSA-N

>  <PUBCHEM_XLOGP3_AA>  (1) 
-4.7

>  <PUBCHEM_EXACT_MASS>  (1) 
342.116212

>  <PUBCHEM_MOLECULAR_FORMULA>  (1) 
C12H22O11

>  <PUBCHEM_MOLECULAR_WEIGHT>  (1) 
342.3

>  <PUBCHEM_OPENEYE_CAN_SMILES>  (1) 
C(C1C(C(C(C(O1)OC2C(OC(C(C2O)O)O)CO)O)O)O)O

>  <PUBCHEM_OPENEYE_ISO_SMILES>  (1) 
C(C1C(C(C(C(O1)OC2C(OC(C(C2O)O)O)CO)O)O)O)O

>  <PUBCHEM_CACTVS_TPSA>  (1) 
190

>  <PUBCHEM_MONOISOTOPIC_WEIGHT>  (1) 
342.116212

>  <PUBCHEM_TOTAL_CHARGE>  (1) 
0

>  <PUBCHEM_HEAVY_ATOM_COUNT>  (1) 
23

>  <PUBCHEM_ATOM_DEF_STEREO_COUNT>  (1) 
0

>  <PUBCHEM_ATOM_UDEF_STEREO_COUNT>  (1) 
10

>  <PUBCHEM_BOND_DEF_STEREO_COUNT>  (1) 
0

>  <PUBCHEM_BOND_UDEF_STEREO_COUNT>  (1) 
0

>  <PUBCHEM_ISOTOPIC_ATOM_COUNT>  (1) 
0

>  <PUBCHEM_COMPONENT_COUNT>  (1) 
1

>  <PUBCHEM_CACTVS_TAUTO_COUNT>  (1) 
-1

>  <PUBCHEM_COORDINATE_TYPE>  (1) 
1
5
255

>  <PUBCHEM_BONDANNOTATIONS>  (1) 
12  1  3
14  1  3
15  22  3
20  23  3
13  4  3
16  5  3
17  6  3
18  7  3
19  8  3
21  9  3

$$$$
