299
     RDKit          2D

 21 25  0  0  1  0  0  0  0  0999 V2000
    0.6339    1.2115    0.0000 Cl  0  0  0  0  0  0  0  0  0  0  0  0
    3.5680   -1.8810    0.0000 Cl  0  0  0  0  0  0  0  0  0  0  0  0
   -0.3237    1.6698    0.0000 Cl  0  0  0  0  0  0  0  0  0  0  0  0
   -4.1937   -0.1457    0.0000 Cl  0  0  0  0  0  0  0  0  0  0  0  0
    1.2919   -2.5188    0.0000 Cl  0  0  0  0  0  0  0  0  0  0  0  0
   -2.4059   -1.6920    0.0000 Cl  0  0  0  0  0  0  0  0  0  0  0  0
    3.2273    1.7243    0.0000 Cl  0  0  0  0  0  0  0  0  0  0  0  0
   -2.3501    2.9713    0.0000 Cl  0  0  0  0  0  0  0  0  0  0  0  0
    0.2785   -2.9684    0.0000 Cl  0  0  0  0  0  0  0  0  0  0  0  0
   -1.6805   -2.5304    0.0000 Cl  0  0  0  0  0  0  0  0  0  0  0  0
    1.6065    3.1576    0.0000 O   0  0  0  0  0  0  0  0  0  0  0  0
    0.7778    0.4275    0.0000 C   0  0  0  0  0  0  0  0  0  0  0  0
    2.4122   -0.9248    0.0000 C   0  0  0  0  0  0  0  0  0  0  0  0
   -0.6861    0.7548    0.0000 C   0  0  0  0  0  0  0  0  0  0  0  0
   -2.7408    0.2273    0.0000 C   0  0  0  0  0  0  0  0  0  0  0  0
    0.9189   -1.0659    0.0000 C   0  0  0  0  0  0  0  0  0  0  0  0
   -1.4497   -0.5363    0.0000 C   0  0  0  0  0  0  0  0  0  0  0  0
    2.2711    0.5686    0.0000 C   0  0  0  0  0  0  0  0  0  0  0  0
   -1.9771    1.5184    0.0000 C   0  0  0  0  0  0  0  0  0  0  0  0
   -0.4578   -1.6615    0.0000 C   0  0  0  0  0  0  0  0  0  0  0  0
    1.2792    1.6938    0.0000 C   0  0  0  0  0  0  0  0  0  0  0  0
  1 12  1  0
  2 13  1  0
  3 14  1  0
  4 15  1  0
  5 16  1  0
  6 17  1  0
  7 18  1  0
  8 19  1  0
  9 20  1  0
 10 20  1  0
 11 21  2  0
 12 14  1  0
 12 16  1  0
 12 18  1  0
 13 15  1  0
 13 16  1  0
 13 18  1  0
 14 17  1  0
 14 19  1  0
 15 17  1  0
 15 19  1  0
 16 20  1  0
 17 20  1  0
 18 21  1  0
 19 21  1  0
M  END
>  <PUBCHEM_COMPOUND_CID>  (1) 
299

>  <PUBCHEM_COMPOUND_CANONICALIZED>  (1) 
1

>  <PUBCHEM_CACTVS_COMPLEXITY>  (1) 
631

>  <PUBCHEM_CACTVS_HBOND_ACCEPTOR>  (1) 
1

>  <PUBCHEM_CACTVS_HBOND_DONOR>  (1) 
0

>  <PUBCHEM_CACTVS_ROTATABLE_BOND>  (1) 
0

>  <PUBCHEM_CACTVS_SUBSKEYS>  (1) 
AAADcQBwIAAHgAAAAAAAAAAAAABgwYMGDAAAAAAAAAAAAAAAAAAACgIAAAAADAYAgIAAAAAAAAAIAIAQAAAAAAAAAAAAAEEAAgBAABIBAAAAAAAAAAAAAAEIiMCOgAAAAAAAAACIACRAASIACRAASIACAA==

>  <PUBCHEM_IUPAC_OPENEYE_NAME>  (1) 
1,2,3,4,6,7,8,9,10,10-decachloropentacyclo[5.3.0.02,6.03,9.04,8]decan-5-one

>  <PUBCHEM_IUPAC_CAS_NAME>  (1) 
1,2,3,4,6,7,8,9,10,10-decachloro-5-pentacyclo[5.3.0.02,6.03,9.04,8]decanone

>  <PUBCHEM_IUPAC_NAME_MARKUP>  (1) 
1,2,3,4,6,7,8,9,10,10-decachloropentacyclo[5.3.0.0<SUP>2,6</SUP>.0<SUP>3,9</SUP>.0<SUP>4,8</SUP>]decan-5-one

>  <PUBCHEM_IUPAC_NAME>  (1) 
1,2,3,4,6,7,8,9,10,10-decachloropentacyclo[5.3.0.02,6.03,9.04,8]decan-5-one

>  <PUBCHEM_IUPAC_SYSTEMATIC_NAME>  (1) 
1,2,3,4,6,7,8,9,10,10-decakis(chloranyl)pentacyclo[5.3.0.02,6.03,9.04,8]decan-5-one

>  <PUBCHEM_IUPAC_TRADITIONAL_NAME>  (1) 
1,2,3,4,6,7,8,9,10,10-decachloropentacyclo[5.3.0.02,6.03,9.04,8]decan-5-one

>  <PUBCHEM_IUPAC_INCHI>  (1) 
InChI=1S/C10Cl10O/c11-2-1(21)3(12)6(15)4(2,13)8(17)5(2,14)7(3,16)9(6,18)10(8,19)20

>  <PUBCHEM_IUPAC_INCHIKEY>  (1) 
LHHGDZSESBACKH-UHFFFAOYSA-N

>  <PUBCHEM_XLOGP3_AA>  (1) 
3.9

>  <PUBCHEM_EXACT_MASS>  (1) 
489.677541

>  <PUBCHEM_MOLECULAR_FORMULA>  (1) 
C10Cl10O

>  <PUBCHEM_MOLECULAR_WEIGHT>  (1) 
490.6

>  <PUBCHEM_OPENEYE_CAN_SMILES>  (1) 
C1(=O)C2(C3(C4(C1(C5(C2(C3(C(C45Cl)(Cl)Cl)Cl)Cl)Cl)Cl)Cl)Cl)Cl

>  <PUBCHEM_OPENEYE_ISO_SMILES>  (1) 
C1(=O)C2(C3(C4(C1(C5(C2(C3(C(C45Cl)(Cl)Cl)Cl)Cl)Cl)Cl)Cl)Cl)Cl

>  <PUBCHEM_CACTVS_TPSA>  (1) 
17.1

>  <PUBCHEM_MONOISOTOPIC_WEIGHT>  (1) 
485.683442

>  <PUBCHEM_TOTAL_CHARGE>  (1) 
0

>  <PUBCHEM_HEAVY_ATOM_COUNT>  (1) 
21

>  <PUBCHEM_ATOM_DEF_STEREO_COUNT>  (1) 
0

>  <PUBCHEM_ATOM_UDEF_STEREO_COUNT>  (1) 
4

>  <PUBCHEM_BOND_DEF_STEREO_COUNT>  (1) 
0

>  <PUBCHEM_BOND_UDEF_STEREO_COUNT>  (1) 
0

>  <PUBCHEM_ISOTOPIC_ATOM_COUNT>  (1) 
0

>  <PUBCHEM_COMPONENT_COUNT>  (1) 
1

>  <PUBCHEM_CACTVS_TAUTO_COUNT>  (1) 
-1

>  <PUBCHEM_COORDINATE_TYPE>  (1) 
1
5
255

>  <PUBCHEM_BONDANNOTATIONS>  (1) 
12  1  3
15  13  3
13  18  3
14  3  3

$$$$
