3
     RDKit          2D

 11 11  0  0  1  0  0  0  0  0999 V2000
   -0.0233   -2.1944    0.0000 O   0  0  0  0  0  0  0  0  0  0  0  0
   -2.9211   -1.4180    0.0000 O   0  0  0  0  0  0  0  0  0  0  0  0
    2.4862   -1.5220    0.0000 O   0  0  0  0  0  0  0  0  0  0  0  0
    3.1587    0.9875    0.0000 O   0  0  0  0  0  0  0  0  0  0  0  0
   -0.4115   -0.7456    0.0000 C   0  0  0  0  0  0  0  0  0  0  0  0
   -1.8604   -0.3573    0.0000 C   0  0  0  0  0  0  0  0  0  0  0  0
    0.6491    0.3151    0.0000 C   0  0  0  0  0  0  0  0  0  0  0  0
   -2.2486    1.0916    0.0000 C   0  0  0  0  0  0  0  0  0  0  0  0
    0.2609    1.7640    0.0000 C   0  0  0  0  0  0  0  0  0  0  0  0
   -1.1880    2.1522    0.0000 C   0  0  0  0  0  0  0  0  0  0  0  0
    2.0980   -0.0731    0.0000 C   0  0  0  0  0  0  0  0  0  0  0  0
  1  5  1  0
  2  6  1  0
  3 11  1  0
  4 11  2  0
  5  6  1  0
  5  7  1  0
  6  8  1  0
  7  9  2  0
  7 11  1  0
  8 10  2  0
  9 10  1  0
M  END
>  <PUBCHEM_COMPOUND_CID>  (1) 
3

>  <PUBCHEM_COMPOUND_CANONICALIZED>  (1) 
1

>  <PUBCHEM_CACTVS_COMPLEXITY>  (1) 
229

>  <PUBCHEM_CACTVS_HBOND_ACCEPTOR>  (1) 
4

>  <PUBCHEM_CACTVS_HBOND_DONOR>  (1) 
3

>  <PUBCHEM_CACTVS_ROTATABLE_BOND>  (1) 
1

>  <PUBCHEM_CACTVS_SUBSKEYS>  (1) 
AAADccBgOAAAAAAAAAAAAAAAAAAAAAAAAAAgAAAAAAAAAAAAAAAAGgAACAAADBSggAIACAAAAgCIAiDSCAAAAAAgAAAICAEAAEgJFBYAAQAAUAAF4AAJkYLKAAAAAAAAAAAAAAAAAAAAAAAAAAAAAAAAAA==

>  <PUBCHEM_IUPAC_OPENEYE_NAME>  (1) 
5,6-dihydroxycyclohexa-1,3-diene-1-carboxylic acid

>  <PUBCHEM_IUPAC_CAS_NAME>  (1) 
5,6-dihydroxy-1-cyclohexa-1,3-dienecarboxylic acid

>  <PUBCHEM_IUPAC_NAME_MARKUP>  (1) 
5,6-dihydroxycyclohexa-1,3-diene-1-carboxylic acid

>  <PUBCHEM_IUPAC_NAME>  (1) 
5,6-dihydroxycyclohexa-1,3-diene-1-carboxylic acid

>  <PUBCHEM_IUPAC_SYSTEMATIC_NAME>  (1) 
5,6-bis(oxidanyl)cyclohexa-1,3-diene-1-carboxylic acid

>  <PUBCHEM_IUPAC_TRADITIONAL_NAME>  (1) 
5,6-dihydroxycyclohexa-1,3-diene-1-carboxylic acid

>  <PUBCHEM_IUPAC_INCHI>  (1) 
InChI=1S/C7H8O4/c8-5-3-1-2-4(6(5)9)7(10)11/h1-3,5-6,8-9H,(H,10,11)

>  <PUBCHEM_IUPAC_INCHIKEY>  (1) 
INCSWYKICIYAHB-UHFFFAOYSA-N

>  <PUBCHEM_XLOGP3_AA>  (1) 
-0.3

>  <PUBCHEM_EXACT_MASS>  (1) 
156.042259

>  <PUBCHEM_MOLECULAR_FORMULA>  (1) 
C7H8O4

>  <PUBCHEM_MOLECULAR_WEIGHT>  (1) 
156.14

>  <PUBCHEM_OPENEYE_CAN_SMILES>  (1) 
C1=CC(C(C(=C1)C(=O)O)O)O

>  <PUBCHEM_OPENEYE_ISO_SMILES>  (1) 
C1=CC(C(C(=C1)C(=O)O)O)O

>  <PUBCHEM_CACTVS_TPSA>  (1) 
77.8

>  <PUBCHEM_MONOISOTOPIC_WEIGHT>  (1) 
156.042259

>  <PUBCHEM_TOTAL_CHARGE>  (1) 
0

>  <PUBCHEM_HEAVY_ATOM_COUNT>  (1) 
11

>  <PUBCHEM_ATOM_DEF_STEREO_COUNT>  (1) 
0

>  <PUBCHEM_ATOM_UDEF_STEREO_COUNT>  (1) 
2

>  <PUBCHEM_BOND_DEF_STEREO_COUNT>  (1) 
0

>  <PUBCHEM_BOND_UDEF_STEREO_COUNT>  (1) 
0

>  <PUBCHEM_ISOTOPIC_ATOM_COUNT>  (1) 
0

>  <PUBCHEM_COMPONENT_COUNT>  (1) 
1

>  <PUBCHEM_CACTVS_TAUTO_COUNT>  (1) 
-1

>  <PUBCHEM_COORDINATE_TYPE>  (1) 
1
5
255

>  <PUBCHEM_BONDANNOTATIONS>  (1) 
5  1  3
6  2  3

$$$$
