30
     RDKit          2D

 10  9  0  0  0  0  0  0  0  0999 V2000
   -4.0245    0.4014    0.0000 O   0  0  0  0  0  0  0  0  0  0  0  0
   -2.7402   -1.8571    0.0000 O   0  0  0  0  0  0  0  0  0  0  0  0
    5.0637   -0.4082    0.0000 O   0  0  0  0  0  0  0  0  0  0  0  0
   -1.4166    1.8843    0.0000 N   0  0  0  0  0  0  0  0  0  0  0  0
   -1.4265    0.3844    0.0000 C   0  0  0  0  0  0  0  0  0  0  0  0
   -0.1324   -0.3741    0.0000 C   0  0  0  0  0  0  0  0  0  0  0  0
    1.1716    0.3673    0.0000 C   0  0  0  0  0  0  0  0  0  0  0  0
   -2.7304   -0.3571    0.0000 C   0  0  0  0  0  0  0  0  0  0  0  0
    2.4657   -0.3912    0.0000 C   0  0  0  0  0  0  0  0  0  0  0  0
    3.7696    0.3503    0.0000 C   0  0  0  0  0  0  0  0  0  0  0  0
  1  8  1  0
  2  8  2  0
  3 10  2  0
  4  5  1  0
  5  6  2  3
  5  8  1  0
  6  7  1  0
  7  9  2  3
  9 10  1  0
M  END
>  <PUBCHEM_COMPOUND_CID>  (1) 
30

>  <PUBCHEM_COMPOUND_CANONICALIZED>  (1) 
1

>  <PUBCHEM_CACTVS_COMPLEXITY>  (1) 
193

>  <PUBCHEM_CACTVS_HBOND_ACCEPTOR>  (1) 
4

>  <PUBCHEM_CACTVS_HBOND_DONOR>  (1) 
2

>  <PUBCHEM_CACTVS_ROTATABLE_BOND>  (1) 
3

>  <PUBCHEM_CACTVS_SUBSKEYS>  (1) 
AAADcYBiMAAAAAAAAAAAAAAAAAAAAAAAAAAAAAAAAAAAAAAAAAAAHgAQCAAACAihgAIACABAAgCIACzSyAAAAAAAAgAICACAAEAKBAAAAQAAEAAAAAAAkYAAAAAAAAAAAAAAAAAAAAAAAAAAAAAAAAAAAA==

>  <PUBCHEM_IUPAC_OPENEYE_NAME>  (1) 
2-amino-6-oxo-hexa-2,4-dienoic acid

>  <PUBCHEM_IUPAC_CAS_NAME>  (1) 
2-amino-6-oxohexa-2,4-dienoic acid

>  <PUBCHEM_IUPAC_NAME_MARKUP>  (1) 
2-amino-6-oxohexa-2,4-dienoic acid

>  <PUBCHEM_IUPAC_NAME>  (1) 
2-amino-6-oxohexa-2,4-dienoic acid

>  <PUBCHEM_IUPAC_SYSTEMATIC_NAME>  (1) 
2-azanyl-6-oxidanylidene-hexa-2,4-dienoic acid

>  <PUBCHEM_IUPAC_TRADITIONAL_NAME>  (1) 
2-amino-6-keto-hexa-2,4-dienoic acid

>  <PUBCHEM_IUPAC_INCHI>  (1) 
InChI=1S/C6H7NO3/c7-5(6(9)10)3-1-2-4-8/h1-4H,7H2,(H,9,10)

>  <PUBCHEM_IUPAC_INCHIKEY>  (1) 
QCGTZPZKJPTAEP-UHFFFAOYSA-N

>  <PUBCHEM_XLOGP3_AA>  (1) 
-0.3

>  <PUBCHEM_EXACT_MASS>  (1) 
141.042593

>  <PUBCHEM_MOLECULAR_FORMULA>  (1) 
C6H7NO3

>  <PUBCHEM_MOLECULAR_WEIGHT>  (1) 
141.12

>  <PUBCHEM_OPENEYE_CAN_SMILES>  (1) 
C(=CC=O)C=C(C(=O)O)N

>  <PUBCHEM_OPENEYE_ISO_SMILES>  (1) 
C(=CC=O)C=C(C(=O)O)N

>  <PUBCHEM_CACTVS_TPSA>  (1) 
80.4

>  <PUBCHEM_MONOISOTOPIC_WEIGHT>  (1) 
141.042593

>  <PUBCHEM_TOTAL_CHARGE>  (1) 
0

>  <PUBCHEM_HEAVY_ATOM_COUNT>  (1) 
10

>  <PUBCHEM_ATOM_DEF_STEREO_COUNT>  (1) 
0

>  <PUBCHEM_ATOM_UDEF_STEREO_COUNT>  (1) 
0

>  <PUBCHEM_BOND_DEF_STEREO_COUNT>  (1) 
0

>  <PUBCHEM_BOND_UDEF_STEREO_COUNT>  (1) 
2

>  <PUBCHEM_ISOTOPIC_ATOM_COUNT>  (1) 
0

>  <PUBCHEM_COMPONENT_COUNT>  (1) 
1

>  <PUBCHEM_CACTVS_TAUTO_COUNT>  (1) 
-1

>  <PUBCHEM_COORDINATE_TYPE>  (1) 
1
5
255

>  <PUBCHEM_BONDANNOTATIONS>  (1) 
5  6  1
7  9  1

$$$$
