303
     RDKit          2D

 29 32  0  0  1  0  0  0  0  0999 V2000
   -2.1170   -1.4955    0.0000 O   0  0  0  0  0  0  0  0  0  0  0  0
    2.2819    3.7865    0.0000 O   0  0  0  0  0  0  0  0  0  0  0  0
    7.2205   -2.2434    0.0000 O   0  0  0  0  0  0  0  0  0  0  0  0
   -7.1069   -2.8565    0.0000 O   0  0  0  0  0  0  0  0  0  0  0  0
   -4.5386   -3.2487    0.0000 O   0  0  0  0  0  0  0  0  0  0  0  0
   -1.1995    0.9352    0.0000 C   0  0  0  0  0  0  0  0  0  0  0  0
   -0.0390    1.8856    0.0000 C   0  0  0  0  0  0  0  0  0  0  0  0
    1.3643    1.3559    0.0000 C   0  0  0  0  0  0  0  0  0  0  0  0
    1.6072   -0.1244    0.0000 C   0  0  0  0  0  0  0  0  0  0  0  0
    3.0105   -0.6541    0.0000 C   0  0  0  0  0  0  0  0  0  0  0  0
   -2.4620    1.7451    0.0000 C   0  0  0  0  0  0  0  0  0  0  0  0
   -0.9566   -0.5450    0.0000 C   0  0  0  0  0  0  0  0  0  0  0  0
    0.4467   -1.0748    0.0000 C   0  0  0  0  0  0  0  0  0  0  0  0
    4.1710    0.2963    0.0000 C   0  0  0  0  0  0  0  0  0  0  0  0
   -0.5844    3.2830    0.0000 C   0  0  0  0  0  0  0  0  0  0  0  0
    2.5248    2.3063    0.0000 C   0  0  0  0  0  0  0  0  0  0  0  0
   -2.0818    3.1961    0.0000 C   0  0  0  0  0  0  0  0  0  0  0  0
    3.9281    1.7765    0.0000 C   0  0  0  0  0  0  0  0  0  0  0  0
    3.2534   -2.1343    0.0000 C   0  0  0  0  0  0  0  0  0  0  0  0
   -2.4529    0.1112    0.0000 C   0  0  0  0  0  0  0  0  0  0  0  0
   -3.8594    1.1998    0.0000 C   0  0  0  0  0  0  0  0  0  0  0  0
    5.5743   -0.2334    0.0000 C   0  0  0  0  0  0  0  0  0  0  0  0
    1.8501   -1.6046    0.0000 C   0  0  0  0  0  0  0  0  0  0  0  0
    4.6568   -2.6641    0.0000 C   0  0  0  0  0  0  0  0  0  0  0  0
    5.8172   -1.7136    0.0000 C   0  0  0  0  0  0  0  0  0  0  0  0
   -4.0858   -0.2830    0.0000 C   0  0  0  0  0  0  0  0  0  0  0  0
   -5.0303    2.1373    0.0000 C   0  0  0  0  0  0  0  0  0  0  0  0
   -5.4831   -0.8284    0.0000 C   0  0  0  0  0  0  0  0  0  0  0  0
   -5.7095   -2.3112    0.0000 C   0  0  0  0  0  0  0  0  0  0  0  0
  1 12  1  0
  2 16  1  0
  3 25  1  0
  4 29  1  0
  5 29  2  0
  6  7  1  0
  6 11  1  0
  6 12  1  0
  6 20  1  0
  7  8  1  0
  7 15  1  0
  8  9  1  0
  8 16  1  0
  9 10  1  0
  9 13  1  0
 10 14  1  0
 10 19  1  0
 10 23  1  0
 11 17  1  0
 11 21  1  0
 12 13  1  0
 14 18  1  0
 14 22  1  0
 15 17  1  0
 16 18  1  0
 19 24  1  0
 21 26  1  0
 21 27  1  0
 22 25  1  0
 24 25  1  0
 26 28  1  0
 28 29  1  0
M  END
>  <PUBCHEM_COMPOUND_CID>  (1) 
303

>  <PUBCHEM_COMPOUND_CANONICALIZED>  (1) 
1

>  <PUBCHEM_CACTVS_COMPLEXITY>  (1) 
637

>  <PUBCHEM_CACTVS_HBOND_ACCEPTOR>  (1) 
5

>  <PUBCHEM_CACTVS_HBOND_DONOR>  (1) 
4

>  <PUBCHEM_CACTVS_ROTATABLE_BOND>  (1) 
4

>  <PUBCHEM_CACTVS_SUBSKEYS>  (1) 
AAADcfB4OAAAAAAAAAAAAAAAAAAAAYAAAAAwYMAAAAAAAGDAAAAAGgAACAAADxSggAICCAAAAgAIAACQCAAAAAAAAAAAAAEAAAAAEBIAAAAAQAAEAAAAAAGI6PSPgAAAAAAAAADAAAYAADAAAQAACAAAAA==

>  <PUBCHEM_IUPAC_OPENEYE_NAME>  (1) 
4-(3,7,12-trihydroxy-10,13-dimethyl-2,3,4,5,6,7,8,9,11,12,14,15,16,17-tetradecahydro-1H-cyclopenta[a]phenanthren-17-yl)pentanoic acid

>  <PUBCHEM_IUPAC_CAS_NAME>  (1) 
4-(3,7,12-trihydroxy-10,13-dimethyl-2,3,4,5,6,7,8,9,11,12,14,15,16,17-tetradecahydro-1H-cyclopenta[a]phenanthren-17-yl)pentanoic acid

>  <PUBCHEM_IUPAC_NAME_MARKUP>  (1) 
4-(3,7,12-trihydroxy-10,13-dimethyl-2,3,4,5,6,7,8,9,11,12,14,15,16,17-tetradecahydro-1<I>H</I>-cyclopenta[a]phenanthren-17-yl)pentanoic acid

>  <PUBCHEM_IUPAC_NAME>  (1) 
4-(3,7,12-trihydroxy-10,13-dimethyl-2,3,4,5,6,7,8,9,11,12,14,15,16,17-tetradecahydro-1H-cyclopenta[a]phenanthren-17-yl)pentanoic acid

>  <PUBCHEM_IUPAC_SYSTEMATIC_NAME>  (1) 
4-[10,13-dimethyl-3,7,12-tris(oxidanyl)-2,3,4,5,6,7,8,9,11,12,14,15,16,17-tetradecahydro-1H-cyclopenta[a]phenanthren-17-yl]pentanoic acid

>  <PUBCHEM_IUPAC_TRADITIONAL_NAME>  (1) 
4-(3,7,12-trihydroxy-10,13-dimethyl-2,3,4,5,6,7,8,9,11,12,14,15,16,17-tetradecahydro-1H-cyclopenta[a]phenanthren-17-yl)valeric acid

>  <PUBCHEM_IUPAC_INCHI>  (1) 
InChI=1S/C24H40O5/c1-13(4-7-21(28)29)16-5-6-17-22-18(12-20(27)24(16,17)3)23(2)9-8-15(25)10-14(23)11-19(22)26/h13-20,22,25-27H,4-12H2,1-3H3,(H,28,29)

>  <PUBCHEM_IUPAC_INCHIKEY>  (1) 
BHQCQFFYRZLCQQ-UHFFFAOYSA-N

>  <PUBCHEM_XLOGP3_AA>  (1) 
3.6

>  <PUBCHEM_EXACT_MASS>  (1) 
408.287574

>  <PUBCHEM_MOLECULAR_FORMULA>  (1) 
C24H40O5

>  <PUBCHEM_MOLECULAR_WEIGHT>  (1) 
408.6

>  <PUBCHEM_OPENEYE_CAN_SMILES>  (1) 
CC(CCC(=O)O)C1CCC2C1(C(CC3C2C(CC4C3(CCC(C4)O)C)O)O)C

>  <PUBCHEM_OPENEYE_ISO_SMILES>  (1) 
CC(CCC(=O)O)C1CCC2C1(C(CC3C2C(CC4C3(CCC(C4)O)C)O)O)C

>  <PUBCHEM_CACTVS_TPSA>  (1) 
98

>  <PUBCHEM_MONOISOTOPIC_WEIGHT>  (1) 
408.287574

>  <PUBCHEM_TOTAL_CHARGE>  (1) 
0

>  <PUBCHEM_HEAVY_ATOM_COUNT>  (1) 
29

>  <PUBCHEM_ATOM_DEF_STEREO_COUNT>  (1) 
0

>  <PUBCHEM_ATOM_UDEF_STEREO_COUNT>  (1) 
11

>  <PUBCHEM_BOND_DEF_STEREO_COUNT>  (1) 
0

>  <PUBCHEM_BOND_UDEF_STEREO_COUNT>  (1) 
0

>  <PUBCHEM_ISOTOPIC_ATOM_COUNT>  (1) 
0

>  <PUBCHEM_COMPONENT_COUNT>  (1) 
1

>  <PUBCHEM_CACTVS_TAUTO_COUNT>  (1) 
-1

>  <PUBCHEM_COORDINATE_TYPE>  (1) 
1
5
255

>  <PUBCHEM_BONDANNOTATIONS>  (1) 
12  1  3
10  23  3
11  17  3
14  22  3
16  2  3
21  27  3
25  3  3
6  20  3
7  15  3
8  16  3
9  13  3

$$$$
