307
     RDKit          2D

 10 10  0  0  0  0  0  0  0  0999 V2000
   -4.6450    0.6199    0.0000 O   0  0  0  0  0  0  0  0  0  0  0  0
    0.4510   -0.3958    0.0000 C   0  0  0  0  0  0  0  0  0  0  0  0
    0.7442    1.0753    0.0000 C   0  0  0  0  0  0  0  0  0  0  0  0
    1.5783   -1.3852    0.0000 C   0  0  0  0  0  0  0  0  0  0  0  0
    2.1647    1.5569    0.0000 C   0  0  0  0  0  0  0  0  0  0  0  0
    2.9989   -0.9036    0.0000 C   0  0  0  0  0  0  0  0  0  0  0  0
   -0.9696   -0.8774    0.0000 C   0  0  0  0  0  0  0  0  0  0  0  0
    3.2921    0.5674    0.0000 C   0  0  0  0  0  0  0  0  0  0  0  0
   -2.0970    0.1121    0.0000 C   0  0  0  0  0  0  0  0  0  0  0  0
   -3.5176   -0.3695    0.0000 C   0  0  0  0  0  0  0  0  0  0  0  0
  1 10  2  0
  2  3  2  0
  2  4  1  0
  2  7  1  0
  3  5  1  0
  4  6  2  0
  5  8  2  0
  6  8  1  0
  7  9  2  3
  9 10  1  0
M  END
>  <PUBCHEM_COMPOUND_CID>  (1) 
307

>  <PUBCHEM_COMPOUND_CANONICALIZED>  (1) 
1

>  <PUBCHEM_CACTVS_COMPLEXITY>  (1) 
121

>  <PUBCHEM_CACTVS_HBOND_ACCEPTOR>  (1) 
1

>  <PUBCHEM_CACTVS_HBOND_DONOR>  (1) 
0

>  <PUBCHEM_CACTVS_ROTATABLE_BOND>  (1) 
2

>  <PUBCHEM_CACTVS_SUBSKEYS>  (1) 
AAADccBwIAAAAAAAAAAAAAAAAAAAAAAAAAAwAAAAAAAAAAABAAAAGgAAAAAADACgmAIwAIAAAACIAihSgAACAAAgAAAIiAAAAMgIICKAERCAIAAggAAIiYcAgAAOAAAAAAAAAAAAAAAAAAAAAAAAAAAAAA==

>  <PUBCHEM_IUPAC_OPENEYE_NAME>  (1) 
3-phenylprop-2-enal

>  <PUBCHEM_IUPAC_CAS_NAME>  (1) 
3-phenyl-2-propenal

>  <PUBCHEM_IUPAC_NAME_MARKUP>  (1) 
3-phenylprop-2-enal

>  <PUBCHEM_IUPAC_NAME>  (1) 
3-phenylprop-2-enal

>  <PUBCHEM_IUPAC_SYSTEMATIC_NAME>  (1) 
3-phenylprop-2-enal

>  <PUBCHEM_IUPAC_TRADITIONAL_NAME>  (1) 
3-phenylacrolein

>  <PUBCHEM_IUPAC_INCHI>  (1) 
InChI=1S/C9H8O/c10-8-4-7-9-5-2-1-3-6-9/h1-8H

>  <PUBCHEM_IUPAC_INCHIKEY>  (1) 
KJPRLNWUNMBNBZ-UHFFFAOYSA-N

>  <PUBCHEM_XLOGP3>  (1) 
1.9

>  <PUBCHEM_EXACT_MASS>  (1) 
132.057515

>  <PUBCHEM_MOLECULAR_FORMULA>  (1) 
C9H8O

>  <PUBCHEM_MOLECULAR_WEIGHT>  (1) 
132.16

>  <PUBCHEM_OPENEYE_CAN_SMILES>  (1) 
C1=CC=C(C=C1)C=CC=O

>  <PUBCHEM_OPENEYE_ISO_SMILES>  (1) 
C1=CC=C(C=C1)C=CC=O

>  <PUBCHEM_CACTVS_TPSA>  (1) 
17.1

>  <PUBCHEM_MONOISOTOPIC_WEIGHT>  (1) 
132.057515

>  <PUBCHEM_TOTAL_CHARGE>  (1) 
0

>  <PUBCHEM_HEAVY_ATOM_COUNT>  (1) 
10

>  <PUBCHEM_ATOM_DEF_STEREO_COUNT>  (1) 
0

>  <PUBCHEM_ATOM_UDEF_STEREO_COUNT>  (1) 
0

>  <PUBCHEM_BOND_DEF_STEREO_COUNT>  (1) 
0

>  <PUBCHEM_BOND_UDEF_STEREO_COUNT>  (1) 
1

>  <PUBCHEM_ISOTOPIC_ATOM_COUNT>  (1) 
0

>  <PUBCHEM_COMPONENT_COUNT>  (1) 
1

>  <PUBCHEM_CACTVS_TAUTO_COUNT>  (1) 
-1

>  <PUBCHEM_COORDINATE_TYPE>  (1) 
1
5
255

>  <PUBCHEM_BONDANNOTATIONS>  (1) 
2  3  8
2  4  8
3  5  8
4  6  8
5  8  8
6  8  8
7  9  1

$$$$
