31
     RDKit          2D

 13 12  0  0  1  0  0  0  0  0999 V2000
   -2.8944   -0.1437    0.0000 P   0  0  0  0  0  0  0  0  0  0  0  0
    3.6336   -0.5104    0.0000 O   0  0  0  0  0  0  0  0  0  0  0  0
    0.8636    2.3316    0.0000 O   0  0  0  0  0  0  0  0  0  0  0  0
   -1.6417    0.6814    0.0000 O   0  0  0  0  0  0  0  0  0  0  0  0
    2.4456   -2.4317    0.0000 O   0  0  0  0  0  0  0  0  0  0  0  0
   -2.0693   -1.3964    0.0000 O   0  0  0  0  0  0  0  0  0  0  0  0
   -4.1471   -0.9688    0.0000 O   0  0  0  0  0  0  0  0  0  0  0  0
   -3.7195    1.1090    0.0000 O   0  0  0  0  0  0  0  0  0  0  0  0
    2.2927    0.1619    0.0000 C   0  0  0  0  0  0  0  0  0  0  0  0
    0.9518    0.8342    0.0000 C   0  0  0  0  0  0  0  0  0  0  0  0
    1.6204   -1.1790    0.0000 C   0  0  0  0  0  0  0  0  0  0  0  0
   -0.3008    0.0091    0.0000 C   0  0  0  0  0  0  0  0  0  0  0  0
    2.9650    1.5028    0.0000 C   0  0  0  0  0  0  0  0  0  0  0  0
  1  4  1  0
  1  6  1  0
  1  7  1  0
  1  8  2  0
  2  9  1  0
  3 10  1  0
  4 12  1  0
  5 11  1  0
  9 10  1  0
  9 11  1  0
  9 13  1  0
 10 12  1  0
M  END
>  <PUBCHEM_COMPOUND_CID>  (1) 
31

>  <PUBCHEM_COMPOUND_CANONICALIZED>  (1) 
1

>  <PUBCHEM_CACTVS_COMPLEXITY>  (1) 
201

>  <PUBCHEM_CACTVS_HBOND_ACCEPTOR>  (1) 
7

>  <PUBCHEM_CACTVS_HBOND_DONOR>  (1) 
5

>  <PUBCHEM_CACTVS_ROTATABLE_BOND>  (1) 
5

>  <PUBCHEM_CACTVS_SUBSKEYS>  (1) 
AAADccBgOAIAAAAAAAAAAAAAAAAAAAAAAAAAAAAAAAAAAAAAAAAAGgAACCAADFSggAICAAAAAxAAQAAAAIAAAAAAAAAAAAAAAAABEAAAAAAAQAAFAAABAABAAAAIAAAAAAAAAAAAAAAAAAAAAAAAAAAAAA==

>  <PUBCHEM_IUPAC_OPENEYE_NAME>  (1) 
(2,3,4-trihydroxy-3-methyl-butyl) dihydrogen phosphate

>  <PUBCHEM_IUPAC_CAS_NAME>  (1) 
(2,3,4-trihydroxy-3-methylbutyl) dihydrogen phosphate

>  <PUBCHEM_IUPAC_NAME_MARKUP>  (1) 
(2,3,4-trihydroxy-3-methylbutyl) dihydrogen phosphate

>  <PUBCHEM_IUPAC_NAME>  (1) 
(2,3,4-trihydroxy-3-methylbutyl) dihydrogen phosphate

>  <PUBCHEM_IUPAC_SYSTEMATIC_NAME>  (1) 
[3-methyl-2,3,4-tris(oxidanyl)butyl] dihydrogen phosphate

>  <PUBCHEM_IUPAC_TRADITIONAL_NAME>  (1) 
(2,3,4-trihydroxy-3-methyl-butyl) dihydrogen phosphate

>  <PUBCHEM_IUPAC_INCHI>  (1) 
InChI=1S/C5H13O7P/c1-5(8,3-6)4(7)2-12-13(9,10)11/h4,6-8H,2-3H2,1H3,(H2,9,10,11)

>  <PUBCHEM_IUPAC_INCHIKEY>  (1) 
XMWHRVNVKDKBRG-UHFFFAOYSA-N

>  <PUBCHEM_XLOGP3_AA>  (1) 
-3.3

>  <PUBCHEM_EXACT_MASS>  (1) 
216.03989

>  <PUBCHEM_MOLECULAR_FORMULA>  (1) 
C5H13O7P

>  <PUBCHEM_MOLECULAR_WEIGHT>  (1) 
216.13

>  <PUBCHEM_OPENEYE_CAN_SMILES>  (1) 
CC(CO)(C(COP(=O)(O)O)O)O

>  <PUBCHEM_OPENEYE_ISO_SMILES>  (1) 
CC(CO)(C(COP(=O)(O)O)O)O

>  <PUBCHEM_CACTVS_TPSA>  (1) 
127

>  <PUBCHEM_MONOISOTOPIC_WEIGHT>  (1) 
216.03989

>  <PUBCHEM_TOTAL_CHARGE>  (1) 
0

>  <PUBCHEM_HEAVY_ATOM_COUNT>  (1) 
13

>  <PUBCHEM_ATOM_DEF_STEREO_COUNT>  (1) 
0

>  <PUBCHEM_ATOM_UDEF_STEREO_COUNT>  (1) 
2

>  <PUBCHEM_BOND_DEF_STEREO_COUNT>  (1) 
0

>  <PUBCHEM_BOND_UDEF_STEREO_COUNT>  (1) 
0

>  <PUBCHEM_ISOTOPIC_ATOM_COUNT>  (1) 
0

>  <PUBCHEM_COMPONENT_COUNT>  (1) 
1

>  <PUBCHEM_CACTVS_TAUTO_COUNT>  (1) 
-1

>  <PUBCHEM_COORDINATE_TYPE>  (1) 
1
5
255

>  <PUBCHEM_BONDANNOTATIONS>  (1) 
9  2  3
10  3  3

$$$$
