311
     RDKit          2D

 13 12  0  0  0  0  0  0  0  0999 V2000
    0.0000    1.0467    0.0000 O   0  0  0  0  0  0  0  0  0  0  0  0
    1.2990   -2.7033    0.0000 O   0  0  0  0  0  0  0  0  0  0  0  0
   -1.2990   -2.7033    0.0000 O   0  0  0  0  0  0  0  0  0  0  0  0
   -3.7500    0.8458    0.0000 O   0  0  0  0  0  0  0  0  0  0  0  0
    3.7500    0.8458    0.0000 O   0  0  0  0  0  0  0  0  0  0  0  0
   -1.5000    2.1448    0.0000 O   0  0  0  0  0  0  0  0  0  0  0  0
    1.5000    2.1448    0.0000 O   0  0  0  0  0  0  0  0  0  0  0  0
   -0.0000   -0.4533    0.0000 C   0  0  0  0  0  0  0  0  0  0  0  0
   -1.5000   -0.4533    0.0000 C   0  0  0  0  0  0  0  0  0  0  0  0
    1.5000   -0.4533    0.0000 C   0  0  0  0  0  0  0  0  0  0  0  0
   -0.0000   -1.9533    0.0000 C   0  0  0  0  0  0  0  0  0  0  0  0
   -2.2500    0.8458    0.0000 C   0  0  0  0  0  0  0  0  0  0  0  0
    2.2500    0.8458    0.0000 C   0  0  0  0  0  0  0  0  0  0  0  0
  1  8  1  0
  2 11  1  0
  3 11  2  0
  4 12  1  0
  5 13  1  0
  6 12  2  0
  7 13  2  0
  8  9  1  0
  8 10  1  0
  8 11  1  0
  9 12  1  0
 10 13  1  0
M  END
>  <PUBCHEM_COMPOUND_CID>  (1) 
311

>  <PUBCHEM_COMPOUND_CANONICALIZED>  (1) 
1

>  <PUBCHEM_CACTVS_COMPLEXITY>  (1) 
227

>  <PUBCHEM_CACTVS_HBOND_ACCEPTOR>  (1) 
7

>  <PUBCHEM_CACTVS_HBOND_DONOR>  (1) 
4

>  <PUBCHEM_CACTVS_ROTATABLE_BOND>  (1) 
5

>  <PUBCHEM_CACTVS_SUBSKEYS>  (1) 
AAADccBgOAAAAAAAAAAAAAAAAAAAAAAAAAAAAAAAAAAAAAAAAAAAGgAACAAADESAgAAACAAAAgAIAACQCAIAAAAAAAAAAAFAAAABABYAAAAAQAAFIAABAADLJgAKAAAAAAAAAAAAAAAAAAAAAAAAAAAAAA==

>  <PUBCHEM_IUPAC_OPENEYE_NAME>  (1) 
citric acid

>  <PUBCHEM_IUPAC_CAS_NAME>  (1) 
2-hydroxypropane-1,2,3-tricarboxylic acid

>  <PUBCHEM_IUPAC_NAME_MARKUP>  (1) 
2-hydroxypropane-1,2,3-tricarboxylic acid

>  <PUBCHEM_IUPAC_NAME>  (1) 
2-hydroxypropane-1,2,3-tricarboxylic acid

>  <PUBCHEM_IUPAC_SYSTEMATIC_NAME>  (1) 
2-oxidanylpropane-1,2,3-tricarboxylic acid

>  <PUBCHEM_IUPAC_TRADITIONAL_NAME>  (1) 
citric acid

>  <PUBCHEM_IUPAC_INCHI>  (1) 
InChI=1S/C6H8O7/c7-3(8)1-6(13,5(11)12)2-4(9)10/h13H,1-2H2,(H,7,8)(H,9,10)(H,11,12)

>  <PUBCHEM_IUPAC_INCHIKEY>  (1) 
KRKNYBCHXYNGOX-UHFFFAOYSA-N

>  <PUBCHEM_XLOGP3>  (1) 
-1.7

>  <PUBCHEM_EXACT_MASS>  (1) 
192.027003

>  <PUBCHEM_MOLECULAR_FORMULA>  (1) 
C6H8O7

>  <PUBCHEM_MOLECULAR_WEIGHT>  (1) 
192.12

>  <PUBCHEM_OPENEYE_CAN_SMILES>  (1) 
C(C(=O)O)C(CC(=O)O)(C(=O)O)O

>  <PUBCHEM_OPENEYE_ISO_SMILES>  (1) 
C(C(=O)O)C(CC(=O)O)(C(=O)O)O

>  <PUBCHEM_CACTVS_TPSA>  (1) 
132

>  <PUBCHEM_MONOISOTOPIC_WEIGHT>  (1) 
192.027003

>  <PUBCHEM_TOTAL_CHARGE>  (1) 
0

>  <PUBCHEM_HEAVY_ATOM_COUNT>  (1) 
13

>  <PUBCHEM_ATOM_DEF_STEREO_COUNT>  (1) 
0

>  <PUBCHEM_ATOM_UDEF_STEREO_COUNT>  (1) 
0

>  <PUBCHEM_BOND_DEF_STEREO_COUNT>  (1) 
0

>  <PUBCHEM_BOND_UDEF_STEREO_COUNT>  (1) 
0

>  <PUBCHEM_ISOTOPIC_ATOM_COUNT>  (1) 
0

>  <PUBCHEM_COMPONENT_COUNT>  (1) 
1

>  <PUBCHEM_CACTVS_TAUTO_COUNT>  (1) 
-1

>  <PUBCHEM_COORDINATE_TYPE>  (1) 
1
5
255

$$$$
