312
     RDKit          2D

  1  0  0  0  0  0  0  0  0  0999 V2000
    0.0000    0.0000    0.0000 Cl  0  0  0  0  0  0  0  0  0  0  0  0
M  CHG  1   1  -1
M  END
>  <PUBCHEM_COMPOUND_CID>  (1) 
312

>  <PUBCHEM_COMPOUND_CANONICALIZED>  (1) 
1

>  <PUBCHEM_CACTVS_COMPLEXITY>  (1) 
0

>  <PUBCHEM_CACTVS_HBOND_ACCEPTOR>  (1) 
1

>  <PUBCHEM_CACTVS_HBOND_DONOR>  (1) 
0

>  <PUBCHEM_CACTVS_ROTATABLE_BOND>  (1) 
0

>  <PUBCHEM_CACTVS_SUBSKEYS>  (1) 
AAADcQAAAAAEAAAAAAAAAAAAAAAAAAAAAAAAAAAAAAAAAAAAAAAAAAAAAAAAAAAAAAAAAAAAAAAAAAAAAAAAAAAAAAAAAAAAAAAAAAAAAAAAAAAAAAAAAAAAAAAAAAAAAAAAAAAAAAAAAAAAAAAAAAAAAA==

>  <PUBCHEM_IUPAC_OPENEYE_NAME>  (1) 
chloride

>  <PUBCHEM_IUPAC_CAS_NAME>  (1) 
chloride

>  <PUBCHEM_IUPAC_NAME_MARKUP>  (1) 
chloride

>  <PUBCHEM_IUPAC_NAME>  (1) 
chloride

>  <PUBCHEM_IUPAC_SYSTEMATIC_NAME>  (1) 
chloride

>  <PUBCHEM_IUPAC_TRADITIONAL_NAME>  (1) 
chloride

>  <PUBCHEM_IUPAC_INCHI>  (1) 
InChI=1S/ClH/h1H/p-1

>  <PUBCHEM_IUPAC_INCHIKEY>  (1) 
VEXZGXHMUGYJMC-UHFFFAOYSA-M

>  <PUBCHEM_XLOGP3_AA>  (1) 
0.8

>  <PUBCHEM_EXACT_MASS>  (1) 
34.968853

>  <PUBCHEM_MOLECULAR_FORMULA>  (1) 
Cl-

>  <PUBCHEM_MOLECULAR_WEIGHT>  (1) 
35.45

>  <PUBCHEM_OPENEYE_CAN_SMILES>  (1) 
[Cl-]

>  <PUBCHEM_OPENEYE_ISO_SMILES>  (1) 
[Cl-]

>  <PUBCHEM_CACTVS_TPSA>  (1) 
0

>  <PUBCHEM_MONOISOTOPIC_WEIGHT>  (1) 
34.968853

>  <PUBCHEM_TOTAL_CHARGE>  (1) 
-1

>  <PUBCHEM_HEAVY_ATOM_COUNT>  (1) 
1

>  <PUBCHEM_ATOM_DEF_STEREO_COUNT>  (1) 
0

>  <PUBCHEM_ATOM_UDEF_STEREO_COUNT>  (1) 
0

>  <PUBCHEM_BOND_DEF_STEREO_COUNT>  (1) 
0

>  <PUBCHEM_BOND_UDEF_STEREO_COUNT>  (1) 
0

>  <PUBCHEM_ISOTOPIC_ATOM_COUNT>  (1) 
0

>  <PUBCHEM_COMPONENT_COUNT>  (1) 
1

>  <PUBCHEM_CACTVS_TAUTO_COUNT>  (1) 
-1

>  <PUBCHEM_COORDINATE_TYPE>  (1) 
1
5
255

$$$$
