32
     RDKit          2D

 13 12  0  0  0  0  0  0  0  0999 V2000
    4.0960    0.1954    0.0000 O   0  0  0  0  0  0  0  0  0  0  0  0
    2.8092   -2.0617    0.0000 O   0  0  0  0  0  0  0  0  0  0  0  0
    2.7847    2.4383    0.0000 O   0  0  0  0  0  0  0  0  0  0  0  0
    0.2112   -2.0758    0.0000 O   0  0  0  0  0  0  0  0  0  0  0  0
   -5.0013    0.8959    0.0000 O   0  0  0  0  0  0  0  0  0  0  0  0
   -3.6900   -1.3470    0.0000 O   0  0  0  0  0  0  0  0  0  0  0  0
    1.4979    0.1812    0.0000 C   0  0  0  0  0  0  0  0  0  0  0  0
    0.1948    0.9242    0.0000 C   0  0  0  0  0  0  0  0  0  0  0  0
   -1.1001    0.1671    0.0000 C   0  0  0  0  0  0  0  0  0  0  0  0
    2.7929    0.9383    0.0000 C   0  0  0  0  0  0  0  0  0  0  0  0
    1.5061   -1.3187    0.0000 C   0  0  0  0  0  0  0  0  0  0  0  0
   -2.4032    0.9100    0.0000 C   0  0  0  0  0  0  0  0  0  0  0  0
   -3.6982    0.1529    0.0000 C   0  0  0  0  0  0  0  0  0  0  0  0
  1 10  1  0
  2 11  1  0
  3 10  2  0
  4 11  2  0
  5 13  1  0
  6 13  2  0
  7  8  2  3
  7 10  1  0
  7 11  1  0
  8  9  1  0
  9 12  2  3
 12 13  1  0
M  END
>  <PUBCHEM_COMPOUND_CID>  (1) 
32

>  <PUBCHEM_COMPOUND_CANONICALIZED>  (1) 
1

>  <PUBCHEM_CACTVS_COMPLEXITY>  (1) 
282

>  <PUBCHEM_CACTVS_HBOND_ACCEPTOR>  (1) 
6

>  <PUBCHEM_CACTVS_HBOND_DONOR>  (1) 
3

>  <PUBCHEM_CACTVS_ROTATABLE_BOND>  (1) 
4

>  <PUBCHEM_CACTVS_SUBSKEYS>  (1) 
AAADcYBgOAAAAAAAAAAAAAAAAAAAAAAAAAAAAAAAAAAAAAAAAAAAGgAACAAADACAgAAACAAAAgCIAiDSCAAAAAAAAAAICAEAAEAIBAQIAQAAUAABIAAAkYAAAAAAAAAAAAAAAAAAAAAAAAAAAAAAAAAAAA==

>  <PUBCHEM_IUPAC_OPENEYE_NAME>  (1) 
buta-1,3-diene-1,1,4-tricarboxylic acid

>  <PUBCHEM_IUPAC_CAS_NAME>  (1) 
buta-1,3-diene-1,1,4-tricarboxylic acid

>  <PUBCHEM_IUPAC_NAME_MARKUP>  (1) 
buta-1,3-diene-1,1,4-tricarboxylic acid

>  <PUBCHEM_IUPAC_NAME>  (1) 
buta-1,3-diene-1,1,4-tricarboxylic acid

>  <PUBCHEM_IUPAC_SYSTEMATIC_NAME>  (1) 
buta-1,3-diene-1,1,4-tricarboxylic acid

>  <PUBCHEM_IUPAC_TRADITIONAL_NAME>  (1) 
buta-1,3-diene-1,1,4-tricarboxylic acid

>  <PUBCHEM_IUPAC_INCHI>  (1) 
InChI=1S/C7H6O6/c8-5(9)3-1-2-4(6(10)11)7(12)13/h1-3H,(H,8,9)(H,10,11)(H,12,13)

>  <PUBCHEM_IUPAC_INCHIKEY>  (1) 
SLUDRBHRUDRZJZ-UHFFFAOYSA-N

>  <PUBCHEM_XLOGP3_AA>  (1) 
1

>  <PUBCHEM_EXACT_MASS>  (1) 
186.016438

>  <PUBCHEM_MOLECULAR_FORMULA>  (1) 
C7H6O6

>  <PUBCHEM_MOLECULAR_WEIGHT>  (1) 
186.12

>  <PUBCHEM_OPENEYE_CAN_SMILES>  (1) 
C(=CC(=O)O)C=C(C(=O)O)C(=O)O

>  <PUBCHEM_OPENEYE_ISO_SMILES>  (1) 
C(=CC(=O)O)C=C(C(=O)O)C(=O)O

>  <PUBCHEM_CACTVS_TPSA>  (1) 
112

>  <PUBCHEM_MONOISOTOPIC_WEIGHT>  (1) 
186.016438

>  <PUBCHEM_TOTAL_CHARGE>  (1) 
0

>  <PUBCHEM_HEAVY_ATOM_COUNT>  (1) 
13

>  <PUBCHEM_ATOM_DEF_STEREO_COUNT>  (1) 
0

>  <PUBCHEM_ATOM_UDEF_STEREO_COUNT>  (1) 
0

>  <PUBCHEM_BOND_DEF_STEREO_COUNT>  (1) 
0

>  <PUBCHEM_BOND_UDEF_STEREO_COUNT>  (1) 
1

>  <PUBCHEM_ISOTOPIC_ATOM_COUNT>  (1) 
0

>  <PUBCHEM_COMPONENT_COUNT>  (1) 
1

>  <PUBCHEM_CACTVS_TAUTO_COUNT>  (1) 
-1

>  <PUBCHEM_COORDINATE_TYPE>  (1) 
1
5
255

>  <PUBCHEM_BONDANNOTATIONS>  (1) 
9  12  1

$$$$
