321
     RDKit          2D

 48 52  0  0  0  0  0  0  0  0999 V2000
    8.3102    1.1225    0.0000 O   0  0  0  0  0  0  0  0  0  0  0  0
    8.3788   -1.4965    0.0000 O   0  0  0  0  0  0  0  0  0  0  0  0
   -1.9096    8.2668    0.0000 O   0  0  0  0  0  0  0  0  0  0  0  0
   -9.0539   -1.9530    0.0000 O   0  0  0  0  0  0  0  0  0  0  0  0
    7.8368    3.6771    0.0000 O   0  0  0  0  0  0  0  0  0  0  0  0
    8.0397   -4.0723    0.0000 O   0  0  0  0  0  0  0  0  0  0  0  0
   -4.4642    7.7934    0.0000 O   0  0  0  0  0  0  0  0  0  0  0  0
   -8.5805   -4.5076    0.0000 O   0  0  0  0  0  0  0  0  0  0  0  0
    1.2792    1.6989    0.0000 N   0  0  0  0  0  0  0  0  0  0  0  0
    2.4168   -3.0615    0.0000 N   0  0  0  0  0  0  0  0  0  0  0  0
   -3.1605    2.2310    0.0000 N   0  0  0  0  0  0  0  0  0  0  0  0
   -3.0181   -3.2039    0.0000 N   0  0  0  0  0  0  0  0  0  0  0  0
    2.7664    1.5031    0.0000 C   0  0  0  0  0  0  0  0  0  0  0  0
    3.2172   -1.7929    0.0000 C   0  0  0  0  0  0  0  0  0  0  0  0
   -1.9355    3.0968    0.0000 C   0  0  0  0  0  0  0  0  0  0  0  0
    3.4712   -0.3146    0.0000 C   0  0  0  0  0  0  0  0  0  0  0  0
    1.0058    3.1738    0.0000 C   0  0  0  0  0  0  0  0  0  0  0  0
   -3.8839   -1.9789    0.0000 C   0  0  0  0  0  0  0  0  0  0  0  0
   -0.4725    3.4278    0.0000 C   0  0  0  0  0  0  0  0  0  0  0  0
   -3.9609    0.9624    0.0000 C   0  0  0  0  0  0  0  0  0  0  0  0
    1.1918   -3.9273    0.0000 C   0  0  0  0  0  0  0  0  0  0  0  0
   -4.2149   -0.5159    0.0000 C   0  0  0  0  0  0  0  0  0  0  0  0
   -1.7495   -4.0043    0.0000 C   0  0  0  0  0  0  0  0  0  0  0  0
   -0.2712   -4.2583    0.0000 C   0  0  0  0  0  0  0  0  0  0  0  0
    3.4121    2.8570    0.0000 C   0  0  0  0  0  0  0  0  0  0  0  0
    3.5782   -3.4849    0.0000 C   0  0  0  0  0  0  0  0  0  0  0  0
   -3.6441    3.3687    0.0000 C   0  0  0  0  0  0  0  0  0  0  0  0
   -4.1558   -3.6875    0.0000 C   0  0  0  0  0  0  0  0  0  0  0  0
    2.3241    3.8895    0.0000 C   0  0  0  0  0  0  0  0  0  0  0  0
   -4.6766    2.2807    0.0000 C   0  0  0  0  0  0  0  0  0  0  0  0
    2.5457   -4.5730    0.0000 C   0  0  0  0  0  0  0  0  0  0  0  0
   -3.0678   -4.7200    0.0000 C   0  0  0  0  0  0  0  0  0  0  0  0
    4.8870    3.1304    0.0000 C   0  0  0  0  0  0  0  0  0  0  0  0
    5.0654   -3.6807    0.0000 C   0  0  0  0  0  0  0  0  0  0  0  0
   -3.9175    4.8436    0.0000 C   0  0  0  0  0  0  0  0  0  0  0  0
   -5.6307   -3.9609    0.0000 C   0  0  0  0  0  0  0  0  0  0  0  0
    2.5198    5.3767    0.0000 C   0  0  0  0  0  0  0  0  0  0  0  0
   -6.1638    2.4765    0.0000 C   0  0  0  0  0  0  0  0  0  0  0  0
    2.8190   -6.0479    0.0000 C   0  0  0  0  0  0  0  0  0  0  0  0
   -3.2635   -6.2072    0.0000 C   0  0  0  0  0  0  0  0  0  0  0  0
    5.8612    1.9898    0.0000 C   0  0  0  0  0  0  0  0  0  0  0  0
    5.9785   -2.4907    0.0000 C   0  0  0  0  0  0  0  0  0  0  0  0
   -2.7769    5.8178    0.0000 C   0  0  0  0  0  0  0  0  0  0  0  0
   -6.6049   -2.8202    0.0000 C   0  0  0  0  0  0  0  0  0  0  0  0
    7.3361    2.2631    0.0000 C   0  0  0  0  0  0  0  0  0  0  0  0
    7.4657   -2.6865    0.0000 C   0  0  0  0  0  0  0  0  0  0  0  0
   -3.0502    7.2927    0.0000 C   0  0  0  0  0  0  0  0  0  0  0  0
   -8.0798   -3.0936    0.0000 C   0  0  0  0  0  0  0  0  0  0  0  0
  1 45  1  0
  2 46  1  0
  3 47  1  0
  4 48  1  0
  5 45  2  0
  6 46  2  0
  7 47  2  0
  8 48  2  0
  9 13  1  0
  9 17  1  0
 10 14  1  0
 10 21  1  0
 11 15  1  0
 11 20  1  0
 12 18  1  0
 12 23  1  0
 13 16  1  0
 13 25  2  0
 14 16  1  0
 14 26  2  0
 15 19  1  0
 15 27  2  0
 17 19  1  0
 17 29  2  0
 18 22  1  0
 18 28  2  0
 20 22  1  0
 20 30  2  0
 21 24  1  0
 21 31  2  0
 23 24  1  0
 23 32  2  0
 25 29  1  0
 25 33  1  0
 26 31  1  0
 26 34  1  0
 27 30  1  0
 27 35  1  0
 28 32  1  0
 28 36  1  0
 29 37  1  0
 30 38  1  0
 31 39  1  0
 32 40  1  0
 33 41  1  0
 34 42  1  0
 35 43  1  0
 36 44  1  0
 41 45  1  0
 42 46  1  0
 43 47  1  0
 44 48  1  0
M  END
>  <PUBCHEM_COMPOUND_CID>  (1) 
321

>  <PUBCHEM_COMPOUND_CANONICALIZED>  (1) 
1

>  <PUBCHEM_CACTVS_COMPLEXITY>  (1) 
1170

>  <PUBCHEM_CACTVS_HBOND_ACCEPTOR>  (1) 
8

>  <PUBCHEM_CACTVS_HBOND_DONOR>  (1) 
8

>  <PUBCHEM_CACTVS_ROTATABLE_BOND>  (1) 
12

>  <PUBCHEM_CACTVS_SUBSKEYS>  (1) 
AAADcfB/vAAAAAAAAAAAAAAAAAAAAWLFiwAAAAAAAAAAAAAB/gAAHgAQCAAADAiBngACiJLJkgCoAwTwTACCgCAhACAAmSEwRJgIIHLA0JGEYAhkkADIyAeY2fOegAAAAAAAAAAAAAAAAAAAAAAAAAAAAA==

>  <PUBCHEM_IUPAC_OPENEYE_NAME>  (1) 
3-[8,12,17-tris(2-carboxyethyl)-3,7,13,18-tetramethyl-5,10,15,20,21,22,23,24-octahydroporphyrin-2-yl]propanoic acid

>  <PUBCHEM_IUPAC_CAS_NAME>  (1) 
3-[8,12,17-tris(2-carboxyethyl)-3,7,13,18-tetramethyl-5,10,15,20,21,22,23,24-octahydroporphyrin-2-yl]propanoic acid

>  <PUBCHEM_IUPAC_NAME_MARKUP>  (1) 
3-[8,12,17-tris(2-carboxyethyl)-3,7,13,18-tetramethyl-5,10,15,20,21,22,23,24-octahydroporphyrin-2-yl]propanoic acid

>  <PUBCHEM_IUPAC_NAME>  (1) 
3-[8,12,17-tris(2-carboxyethyl)-3,7,13,18-tetramethyl-5,10,15,20,21,22,23,24-octahydroporphyrin-2-yl]propanoic acid

>  <PUBCHEM_IUPAC_SYSTEMATIC_NAME>  (1) 
3-[8,12,17-tris(3-hydroxy-3-oxopropyl)-3,7,13,18-tetramethyl-5,10,15,20,21,22,23,24-octahydroporphyrin-2-yl]propanoic acid

>  <PUBCHEM_IUPAC_TRADITIONAL_NAME>  (1) 
3-[8,12,17-tris(2-carboxyethyl)-3,7,13,18-tetramethyl-5,10,15,20,21,22,23,24-octahydroporphin-2-yl]propionic acid

>  <PUBCHEM_IUPAC_INCHI>  (1) 
InChI=1S/C36H44N4O8/c1-17-21(5-9-33(41)42)29-14-27-19(3)22(6-10-34(43)44)30(39-27)15-28-20(4)24(8-12-36(47)48)32(40-28)16-31-23(7-11-35(45)46)18(2)26(38-31)13-25(17)37-29/h37-40H,5-16H2,1-4H3,(H,41,42)(H,43,44)(H,45,46)(H,47,48)

>  <PUBCHEM_IUPAC_INCHIKEY>  (1) 
NIUVHXTXUXOFEB-UHFFFAOYSA-N

>  <PUBCHEM_XLOGP3_AA>  (1) 
3.6

>  <PUBCHEM_EXACT_MASS>  (1) 
660.315914

>  <PUBCHEM_MOLECULAR_FORMULA>  (1) 
C36H44N4O8

>  <PUBCHEM_MOLECULAR_WEIGHT>  (1) 
660.8

>  <PUBCHEM_OPENEYE_CAN_SMILES>  (1) 
CC1=C2CC3=C(C(=C(N3)CC4=C(C(=C(N4)CC5=C(C(=C(N5)CC(=C1CCC(=O)O)N2)C)CCC(=O)O)C)CCC(=O)O)CCC(=O)O)C

>  <PUBCHEM_OPENEYE_ISO_SMILES>  (1) 
CC1=C2CC3=C(C(=C(N3)CC4=C(C(=C(N4)CC5=C(C(=C(N5)CC(=C1CCC(=O)O)N2)C)CCC(=O)O)C)CCC(=O)O)CCC(=O)O)C

>  <PUBCHEM_CACTVS_TPSA>  (1) 
212

>  <PUBCHEM_MONOISOTOPIC_WEIGHT>  (1) 
660.315914

>  <PUBCHEM_TOTAL_CHARGE>  (1) 
0

>  <PUBCHEM_HEAVY_ATOM_COUNT>  (1) 
48

>  <PUBCHEM_ATOM_DEF_STEREO_COUNT>  (1) 
0

>  <PUBCHEM_ATOM_UDEF_STEREO_COUNT>  (1) 
0

>  <PUBCHEM_BOND_DEF_STEREO_COUNT>  (1) 
0

>  <PUBCHEM_BOND_UDEF_STEREO_COUNT>  (1) 
0

>  <PUBCHEM_ISOTOPIC_ATOM_COUNT>  (1) 
0

>  <PUBCHEM_COMPONENT_COUNT>  (1) 
1

>  <PUBCHEM_CACTVS_TAUTO_COUNT>  (1) 
-1

>  <PUBCHEM_COORDINATE_TYPE>  (1) 
1
5
255

>  <PUBCHEM_BONDANNOTATIONS>  (1) 
10  14  8
10  21  8
11  15  8
11  20  8
12  18  8
12  23  8
13  25  8
14  26  8
15  27  8
17  29  8
18  28  8
20  30  8
21  31  8
23  32  8
25  29  8
26  31  8
27  30  8
28  32  8
9  13  8
9  17  8

$$$$
