322
     RDKit          2D

 12 12  0  0  0  0  0  0  0  0999 V2000
    4.7424    0.5098    0.0000 O   0  0  0  0  0  0  0  0  0  0  0  0
   -4.5928    1.2868    0.0000 O   0  0  0  0  0  0  0  0  0  0  0  0
   -4.0818   -1.2606    0.0000 O   0  0  0  0  0  0  0  0  0  0  0  0
    0.3303   -0.3754    0.0000 C   0  0  0  0  0  0  0  0  0  0  0  0
    0.8101    1.0458    0.0000 C   0  0  0  0  0  0  0  0  0  0  0  0
    1.3212   -1.5015    0.0000 C   0  0  0  0  0  0  0  0  0  0  0  0
    2.2808    1.3409    0.0000 C   0  0  0  0  0  0  0  0  0  0  0  0
    2.7919   -1.2064    0.0000 C   0  0  0  0  0  0  0  0  0  0  0  0
    3.2717    0.2147    0.0000 C   0  0  0  0  0  0  0  0  0  0  0  0
   -1.1404   -0.6704    0.0000 C   0  0  0  0  0  0  0  0  0  0  0  0
   -2.1313    0.4557    0.0000 C   0  0  0  0  0  0  0  0  0  0  0  0
   -3.6020    0.1606    0.0000 C   0  0  0  0  0  0  0  0  0  0  0  0
  1  9  1  0
  2 12  1  0
  3 12  2  0
  4  5  2  0
  4  6  1  0
  4 10  1  0
  5  7  1  0
  6  8  2  0
  7  9  2  0
  8  9  1  0
 10 11  2  3
 11 12  1  0
M  END
>  <PUBCHEM_COMPOUND_CID>  (1) 
322

>  <PUBCHEM_COMPOUND_CANONICALIZED>  (1) 
1

>  <PUBCHEM_CACTVS_COMPLEXITY>  (1) 
178

>  <PUBCHEM_CACTVS_HBOND_ACCEPTOR>  (1) 
3

>  <PUBCHEM_CACTVS_HBOND_DONOR>  (1) 
2

>  <PUBCHEM_CACTVS_ROTATABLE_BOND>  (1) 
2

>  <PUBCHEM_CACTVS_SUBSKEYS>  (1) 
AAADccBwMAAAAAAAAAAAAAAAAAAAAAAAAAAwAAAAAAAAAAABAAAAGgAACAAADASAmAAwDoAAAgCIAiDSCAACAAAgIAAIiAAGCMgIJiKCERKAcAAkwBEImYeAwAAOIAAAAAAAAABAAAAAAAAAAAAAAAAAAA==

>  <PUBCHEM_IUPAC_OPENEYE_NAME>  (1) 
3-(4-hydroxyphenyl)prop-2-enoic acid

>  <PUBCHEM_IUPAC_CAS_NAME>  (1) 
3-(4-hydroxyphenyl)-2-propenoic acid

>  <PUBCHEM_IUPAC_NAME_MARKUP>  (1) 
3-(4-hydroxyphenyl)prop-2-enoic acid

>  <PUBCHEM_IUPAC_NAME>  (1) 
3-(4-hydroxyphenyl)prop-2-enoic acid

>  <PUBCHEM_IUPAC_SYSTEMATIC_NAME>  (1) 
3-(4-hydroxyphenyl)prop-2-enoic acid

>  <PUBCHEM_IUPAC_TRADITIONAL_NAME>  (1) 
3-(4-hydroxyphenyl)acrylic acid

>  <PUBCHEM_IUPAC_INCHI>  (1) 
InChI=1S/C9H8O3/c10-8-4-1-7(2-5-8)3-6-9(11)12/h1-6,10H,(H,11,12)

>  <PUBCHEM_IUPAC_INCHIKEY>  (1) 
NGSWKAQJJWESNS-UHFFFAOYSA-N

>  <PUBCHEM_XLOGP3>  (1) 
1.5

>  <PUBCHEM_EXACT_MASS>  (1) 
164.047344

>  <PUBCHEM_MOLECULAR_FORMULA>  (1) 
C9H8O3

>  <PUBCHEM_MOLECULAR_WEIGHT>  (1) 
164.16

>  <PUBCHEM_OPENEYE_CAN_SMILES>  (1) 
C1=CC(=CC=C1C=CC(=O)O)O

>  <PUBCHEM_OPENEYE_ISO_SMILES>  (1) 
C1=CC(=CC=C1C=CC(=O)O)O

>  <PUBCHEM_CACTVS_TPSA>  (1) 
57.5

>  <PUBCHEM_MONOISOTOPIC_WEIGHT>  (1) 
164.047344

>  <PUBCHEM_TOTAL_CHARGE>  (1) 
0

>  <PUBCHEM_HEAVY_ATOM_COUNT>  (1) 
12

>  <PUBCHEM_ATOM_DEF_STEREO_COUNT>  (1) 
0

>  <PUBCHEM_ATOM_UDEF_STEREO_COUNT>  (1) 
0

>  <PUBCHEM_BOND_DEF_STEREO_COUNT>  (1) 
0

>  <PUBCHEM_BOND_UDEF_STEREO_COUNT>  (1) 
1

>  <PUBCHEM_ISOTOPIC_ATOM_COUNT>  (1) 
0

>  <PUBCHEM_COMPONENT_COUNT>  (1) 
1

>  <PUBCHEM_CACTVS_TAUTO_COUNT>  (1) 
-1

>  <PUBCHEM_COORDINATE_TYPE>  (1) 
1
5
255

>  <PUBCHEM_BONDANNOTATIONS>  (1) 
10  11  1
4  5  8
4  6  8
5  7  8
6  8  8
7  9  8
8  9  8

$$$$
