324
     RDKit          2D

 59 62  0  0  1  0  0  0  0  0999 V2000
  -12.6277   -0.4538    0.0000 S   0  0  0  0  0  0  0  0  0  0  0  0
    5.8384   -1.7562    0.0000 P   0  0  0  0  0  0  0  0  0  0  0  0
    5.4259    3.2633    0.0000 P   0  0  0  0  0  0  0  0  0  0  0  0
    2.8298    3.1605    0.0000 P   0  0  0  0  0  0  0  0  0  0  0  0
    9.4857    1.0323    0.0000 O   0  0  0  0  0  0  0  0  0  0  0  0
    7.2822   -2.1630    0.0000 O   0  0  0  0  0  0  0  0  0  0  0  0
   10.4985   -2.7146    0.0000 O   0  0  0  0  0  0  0  0  0  0  0  0
    6.7536    2.5653    0.0000 O   0  0  0  0  0  0  0  0  0  0  0  0
    6.2451   -0.3124    0.0000 O   0  0  0  0  0  0  0  0  0  0  0  0
    4.3945   -1.3495    0.0000 O   0  0  0  0  0  0  0  0  0  0  0  0
    4.0982    3.9613    0.0000 O   0  0  0  0  0  0  0  0  0  0  0  0
    5.4316   -3.2000    0.0000 O   0  0  0  0  0  0  0  0  0  0  0  0
    1.5615    2.3597    0.0000 O   0  0  0  0  0  0  0  0  0  0  0  0
    6.1239    4.5910    0.0000 O   0  0  0  0  0  0  0  0  0  0  0  0
   -0.8565   -2.2395    0.0000 O   0  0  0  0  0  0  0  0  0  0  0  0
    4.7279    1.9356    0.0000 O   0  0  0  0  0  0  0  0  0  0  0  0
    3.6306    1.8922    0.0000 O   0  0  0  0  0  0  0  0  0  0  0  0
    2.0290    4.4289    0.0000 O   0  0  0  0  0  0  0  0  0  0  0  0
   -2.3029    1.4561    0.0000 O   0  0  0  0  0  0  0  0  0  0  0  0
   -7.4950    1.2506    0.0000 O   0  0  0  0  0  0  0  0  0  0  0  0
  -13.8367   -2.7535    0.0000 O   0  0  0  0  0  0  0  0  0  0  0  0
  -21.8029    1.4347    0.0000 O   0  0  0  0  0  0  0  0  0  0  0  0
   12.0171    0.1739    0.0000 N   0  0  0  0  0  0  0  0  0  0  0  0
   14.1936    1.2480    0.0000 N   0  0  0  0  0  0  0  0  0  0  0  0
   12.9665   -2.3971    0.0000 N   0  0  0  0  0  0  0  0  0  0  0  0
   15.5591   -2.5662    0.0000 N   0  0  0  0  0  0  0  0  0  0  0  0
   17.0018   -0.4056    0.0000 N   0  0  0  0  0  0  0  0  0  0  0  0
   -3.5119   -0.8435    0.0000 N   0  0  0  0  0  0  0  0  0  0  0  0
   -8.7040   -1.0491    0.0000 N   0  0  0  0  0  0  0  0  0  0  0  0
    8.3563   -1.1160    0.0000 C   0  0  0  0  0  0  0  0  0  0  0  0
    9.8347   -1.3695    0.0000 C   0  0  0  0  0  0  0  0  0  0  0  0
    8.1406    0.3685    0.0000 C   0  0  0  0  0  0  0  0  0  0  0  0
   10.5327   -0.0418    0.0000 C   0  0  0  0  0  0  0  0  0  0  0  0
    6.8129    1.0665    0.0000 C   0  0  0  0  0  0  0  0  0  0  0  0
   13.0641   -0.9003    0.0000 C   0  0  0  0  0  0  0  0  0  0  0  0
   12.7152    1.5015    0.0000 C   0  0  0  0  0  0  0  0  0  0  0  0
   14.4093   -0.2364    0.0000 C   0  0  0  0  0  0  0  0  0  0  0  0
    0.3525    0.0601    0.0000 C   0  0  0  0  0  0  0  0  0  0  0  0
   -0.9159   -0.7407    0.0000 C   0  0  0  0  0  0  0  0  0  0  0  0
    1.6208    0.8609    0.0000 C   0  0  0  0  0  0  0  0  0  0  0  0
   15.6567   -1.0694    0.0000 C   0  0  0  0  0  0  0  0  0  0  0  0
   -0.4483    1.3284    0.0000 C   0  0  0  0  0  0  0  0  0  0  0  0
    1.1533   -1.2083    0.0000 C   0  0  0  0  0  0  0  0  0  0  0  0
   14.2140   -3.2301    0.0000 C   0  0  0  0  0  0  0  0  0  0  0  0
   -2.2436   -0.0427    0.0000 C   0  0  0  0  0  0  0  0  0  0  0  0
   -4.8396   -0.1455    0.0000 C   0  0  0  0  0  0  0  0  0  0  0  0
   -6.1080   -0.9463    0.0000 C   0  0  0  0  0  0  0  0  0  0  0  0
   -7.4356   -0.2483    0.0000 C   0  0  0  0  0  0  0  0  0  0  0  0
  -10.0317   -0.3510    0.0000 C   0  0  0  0  0  0  0  0  0  0  0  0
  -11.3000   -1.1519    0.0000 C   0  0  0  0  0  0  0  0  0  0  0  0
  -13.8961   -1.2546    0.0000 C   0  0  0  0  0  0  0  0  0  0  0  0
  -15.2238   -0.5566    0.0000 C   0  0  0  0  0  0  0  0  0  0  0  0
  -16.4921   -1.3574    0.0000 C   0  0  0  0  0  0  0  0  0  0  0  0
  -17.8198   -0.6594    0.0000 C   0  0  0  0  0  0  0  0  0  0  0  0
  -17.8792    0.8394    0.0000 C   0  0  0  0  0  0  0  0  0  0  0  0
  -19.0882   -1.4602    0.0000 C   0  0  0  0  0  0  0  0  0  0  0  0
  -19.2069    1.5374    0.0000 C   0  0  0  0  0  0  0  0  0  0  0  0
  -20.4159   -0.7622    0.0000 C   0  0  0  0  0  0  0  0  0  0  0  0
  -20.4752    0.7366    0.0000 C   0  0  0  0  0  0  0  0  0  0  0  0
  1 50  1  0
  1 51  1  0
  2  6  1  0
  2  9  1  0
  2 10  1  0
  2 12  2  0
  3  8  1  0
  3 11  1  0
  3 14  1  0
  3 16  2  0
  4 11  1  0
  4 13  1  0
  4 17  1  0
  4 18  2  0
  5 32  1  0
  5 33  1  0
  6 30  1  0
  7 31  1  0
  8 34  1  0
 13 40  1  0
 15 39  1  0
 19 45  2  0
 20 48  2  0
 21 51  2  0
 22 59  1  0
 23 33  1  0
 23 35  1  0
 23 36  1  0
 24 36  2  0
 24 37  1  0
 25 35  1  0
 25 44  2  0
 26 41  2  0
 26 44  1  0
 27 41  1  0
 28 45  1  0
 28 46  1  0
 29 48  1  0
 29 49  1  0
 30 31  1  0
 30 32  1  0
 31 33  1  0
 32 34  1  0
 35 37  2  0
 37 41  1  0
 38 39  1  0
 38 40  1  0
 38 42  1  0
 38 43  1  0
 39 45  1  0
 46 47  1  0
 47 48  1  0
 49 50  1  0
 51 52  1  0
 52 53  2  3
 53 54  1  0
 54 55  2  0
 54 56  1  0
 55 57  1  0
 56 58  2  0
 57 59  2  0
 58 59  1  0
M  END
>  <PUBCHEM_COMPOUND_CID>  (1) 
324

>  <PUBCHEM_COMPOUND_CANONICALIZED>  (1) 
1

>  <PUBCHEM_CACTVS_COMPLEXITY>  (1) 
1620

>  <PUBCHEM_CACTVS_HBOND_ACCEPTOR>  (1) 
23

>  <PUBCHEM_CACTVS_HBOND_DONOR>  (1) 
10

>  <PUBCHEM_CACTVS_ROTATABLE_BOND>  (1) 
22

>  <PUBCHEM_CACTVS_SUBSKEYS>  (1) 
AAADcfB7vgNAAAAAAAAAAAAAAAAAAWJAAAA8QAAAAAAAAFgB/AAAHgQQCCAADhzl3wa39r/MFxioQydzdIKCgC0xMLAJ2KFuXNiLfjrC2VKedAgv1hP7mafy8AIPIAAAAAAAAABAAAAAAAAAAAAAAAAAAA==

>  <PUBCHEM_IUPAC_OPENEYE_NAME>  (1) 
S-[2-[3-[[4-[[[5-(6-aminopurin-9-yl)-4-hydroxy-3-phosphonooxy-tetrahydrofuran-2-yl]methoxy-hydroxy-phosphoryl]oxy-hydroxy-phosphoryl]oxy-2-hydroxy-3,3-dimethyl-butanoyl]amino]propanoylamino]ethyl] 3-(4-hydroxyphenyl)prop-2-enethioate

>  <PUBCHEM_IUPAC_CAS_NAME>  (1) 
3-(4-hydroxyphenyl)-2-propenethioic acid S-[2-[[3-[[4-[[[5-(6-aminopurin-9-yl)-4-hydroxy-3-phosphonooxy-2-oxolanyl]methoxy-hydroxyphosphoryl]oxy-hydroxyphosphoryl]oxy-2-hydroxy-3,3-dimethyl-1-oxobutyl]amino]-1-oxopropyl]amino]ethyl] ester

>  <PUBCHEM_IUPAC_NAME_MARKUP>  (1) 
<I>S</I>-[2-[3-[[4-[[[5-(6-aminopurin-9-yl)-4-hydroxy-3-phosphonooxyoxolan-2-yl]methoxy-hydroxyphosphoryl]oxy-hydroxyphosphoryl]oxy-2-hydroxy-3,3-dimethylbutanoyl]amino]propanoylamino]ethyl] 3-(4-hydroxyphenyl)prop-2-enethioate

>  <PUBCHEM_IUPAC_NAME>  (1) 
S-[2-[3-[[4-[[[5-(6-aminopurin-9-yl)-4-hydroxy-3-phosphonooxyoxolan-2-yl]methoxy-hydroxyphosphoryl]oxy-hydroxyphosphoryl]oxy-2-hydroxy-3,3-dimethylbutanoyl]amino]propanoylamino]ethyl] 3-(4-hydroxyphenyl)prop-2-enethioate

>  <PUBCHEM_IUPAC_SYSTEMATIC_NAME>  (1) 
S-[2-[3-[[4-[[[5-(6-aminopurin-9-yl)-4-oxidanyl-3-phosphonooxy-oxolan-2-yl]methoxy-oxidanyl-phosphoryl]oxy-oxidanyl-phosphoryl]oxy-3,3-dimethyl-2-oxidanyl-butanoyl]amino]propanoylamino]ethyl] 3-(4-hydroxyphenyl)prop-2-enethioate

>  <PUBCHEM_IUPAC_TRADITIONAL_NAME>  (1) 
3-(4-hydroxyphenyl)prop-2-enethioic acid S-[2-[3-[[4-[[(5-adenin-9-yl-4-hydroxy-3-phosphonooxy-tetrahydrofuran-2-yl)methoxy-hydroxy-phosphoryl]oxy-hydroxy-phosphoryl]oxy-2-hydroxy-3,3-dimethyl-butanoyl]amino]propanoylamino]ethyl] ester

>  <PUBCHEM_IUPAC_INCHI>  (1) 
InChI=1S/C30H42N7O18P3S/c1-30(2,25(42)28(43)33-10-9-20(39)32-11-12-59-21(40)8-5-17-3-6-18(38)7-4-17)14-52-58(49,50)55-57(47,48)51-13-19-24(54-56(44,45)46)23(41)29(53-19)37-16-36-22-26(31)34-15-35-27(22)37/h3-8,15-16,19,23-25,29,38,41-42H,9-14H2,1-2H3,(H,32,39)(H,33,43)(H,47,48)(H,49,50)(H2,31,34,35)(H2,44,45,46)

>  <PUBCHEM_IUPAC_INCHIKEY>  (1) 
DMZOKBALNZWDKI-UHFFFAOYSA-N

>  <PUBCHEM_XLOGP3_AA>  (1) 
-3.9

>  <PUBCHEM_EXACT_MASS>  (1) 
913.15199

>  <PUBCHEM_MOLECULAR_FORMULA>  (1) 
C30H42N7O18P3S

>  <PUBCHEM_MOLECULAR_WEIGHT>  (1) 
913.7

>  <PUBCHEM_OPENEYE_CAN_SMILES>  (1) 
CC(C)(COP(=O)(O)OP(=O)(O)OCC1C(C(C(O1)N2C=NC3=C(N=CN=C32)N)O)OP(=O)(O)O)C(C(=O)NCCC(=O)NCCSC(=O)C=CC4=CC=C(C=C4)O)O

>  <PUBCHEM_OPENEYE_ISO_SMILES>  (1) 
CC(C)(COP(=O)(O)OP(=O)(O)OCC1C(C(C(O1)N2C=NC3=C(N=CN=C32)N)O)OP(=O)(O)O)C(C(=O)NCCC(=O)NCCSC(=O)C=CC4=CC=C(C=C4)O)O

>  <PUBCHEM_CACTVS_TPSA>  (1) 
409

>  <PUBCHEM_MONOISOTOPIC_WEIGHT>  (1) 
913.15199

>  <PUBCHEM_TOTAL_CHARGE>  (1) 
0

>  <PUBCHEM_HEAVY_ATOM_COUNT>  (1) 
59

>  <PUBCHEM_ATOM_DEF_STEREO_COUNT>  (1) 
0

>  <PUBCHEM_ATOM_UDEF_STEREO_COUNT>  (1) 
5

>  <PUBCHEM_BOND_DEF_STEREO_COUNT>  (1) 
0

>  <PUBCHEM_BOND_UDEF_STEREO_COUNT>  (1) 
1

>  <PUBCHEM_ISOTOPIC_ATOM_COUNT>  (1) 
0

>  <PUBCHEM_COMPONENT_COUNT>  (1) 
1

>  <PUBCHEM_CACTVS_TAUTO_COUNT>  (1) 
-1

>  <PUBCHEM_COORDINATE_TYPE>  (1) 
1
5
255

>  <PUBCHEM_BONDANNOTATIONS>  (1) 
39  15  3
33  23  3
23  35  8
23  36  8
24  36  8
24  37  8
25  35  8
25  44  8
26  41  8
26  44  8
32  34  3
35  37  8
37  41  8
52  53  1
54  55  8
54  56  8
55  57  8
56  58  8
57  59  8
58  59  8
30  6  3
31  7  3

$$$$
