326
     RDKit          2D

 11 11  0  0  0  0  0  0  0  0999 V2000
    4.1862   -0.7785    0.0000 O   0  0  0  0  0  0  0  0  0  0  0  0
   -2.6580   -0.1404    0.0000 C   0  0  0  0  0  0  0  0  0  0  0  0
   -1.1651    0.0051    0.0000 C   0  0  0  0  0  0  0  0  0  0  0  0
   -3.5305    1.0797    0.0000 C   0  0  0  0  0  0  0  0  0  0  0  0
   -3.2784   -1.5061    0.0000 C   0  0  0  0  0  0  0  0  0  0  0  0
   -0.5446    1.3708    0.0000 C   0  0  0  0  0  0  0  0  0  0  0  0
   -0.2926   -1.2151    0.0000 C   0  0  0  0  0  0  0  0  0  0  0  0
    0.9483    1.5163    0.0000 C   0  0  0  0  0  0  0  0  0  0  0  0
    1.2003   -1.0695    0.0000 C   0  0  0  0  0  0  0  0  0  0  0  0
    1.8208    0.2961    0.0000 C   0  0  0  0  0  0  0  0  0  0  0  0
    3.3137    0.4417    0.0000 C   0  0  0  0  0  0  0  0  0  0  0  0
  1 11  2  0
  2  3  1  0
  2  4  1  0
  2  5  1  0
  3  6  2  0
  3  7  1  0
  6  8  1  0
  7  9  2  0
  8 10  2  0
  9 10  1  0
 10 11  1  0
M  END
>  <PUBCHEM_COMPOUND_CID>  (1) 
326

>  <PUBCHEM_COMPOUND_CANONICALIZED>  (1) 
1

>  <PUBCHEM_CACTVS_COMPLEXITY>  (1) 
121

>  <PUBCHEM_CACTVS_HBOND_ACCEPTOR>  (1) 
1

>  <PUBCHEM_CACTVS_HBOND_DONOR>  (1) 
0

>  <PUBCHEM_CACTVS_ROTATABLE_BOND>  (1) 
2

>  <PUBCHEM_CACTVS_SUBSKEYS>  (1) 
AAADccBwIAAAAAAAAAAAAAAAAAAAAAAAAAAwAAAAAAAAAAABAAAAGgAAAAAADQCgmAIyAIAAAACIAihSgAACAAAkAAAIiAEAAMgIIDKAFRCAIQAggAAIiYcIiMCOwAAAAAAAAACAAAAAAAAAAAAAAAAAAA==

>  <PUBCHEM_IUPAC_OPENEYE_NAME>  (1) 
4-isopropylbenzaldehyde

>  <PUBCHEM_IUPAC_CAS_NAME>  (1) 
4-propan-2-ylbenzaldehyde

>  <PUBCHEM_IUPAC_NAME_MARKUP>  (1) 
4-propan-2-ylbenzaldehyde

>  <PUBCHEM_IUPAC_NAME>  (1) 
4-propan-2-ylbenzaldehyde

>  <PUBCHEM_IUPAC_SYSTEMATIC_NAME>  (1) 
4-propan-2-ylbenzaldehyde

>  <PUBCHEM_IUPAC_TRADITIONAL_NAME>  (1) 
4-isopropylbenzaldehyde

>  <PUBCHEM_IUPAC_INCHI>  (1) 
InChI=1S/C10H12O/c1-8(2)10-5-3-9(7-11)4-6-10/h3-8H,1-2H3

>  <PUBCHEM_IUPAC_INCHIKEY>  (1) 
WTWBUQJHJGUZCY-UHFFFAOYSA-N

>  <PUBCHEM_XLOGP3>  (1) 
2.7

>  <PUBCHEM_EXACT_MASS>  (1) 
148.088815

>  <PUBCHEM_MOLECULAR_FORMULA>  (1) 
C10H12O

>  <PUBCHEM_MOLECULAR_WEIGHT>  (1) 
148.2

>  <PUBCHEM_OPENEYE_CAN_SMILES>  (1) 
CC(C)C1=CC=C(C=C1)C=O

>  <PUBCHEM_OPENEYE_ISO_SMILES>  (1) 
CC(C)C1=CC=C(C=C1)C=O

>  <PUBCHEM_CACTVS_TPSA>  (1) 
17.1

>  <PUBCHEM_MONOISOTOPIC_WEIGHT>  (1) 
148.088815

>  <PUBCHEM_TOTAL_CHARGE>  (1) 
0

>  <PUBCHEM_HEAVY_ATOM_COUNT>  (1) 
11

>  <PUBCHEM_ATOM_DEF_STEREO_COUNT>  (1) 
0

>  <PUBCHEM_ATOM_UDEF_STEREO_COUNT>  (1) 
0

>  <PUBCHEM_BOND_DEF_STEREO_COUNT>  (1) 
0

>  <PUBCHEM_BOND_UDEF_STEREO_COUNT>  (1) 
0

>  <PUBCHEM_ISOTOPIC_ATOM_COUNT>  (1) 
0

>  <PUBCHEM_COMPONENT_COUNT>  (1) 
1

>  <PUBCHEM_CACTVS_TAUTO_COUNT>  (1) 
-1

>  <PUBCHEM_COORDINATE_TYPE>  (1) 
1
5
255

>  <PUBCHEM_BONDANNOTATIONS>  (1) 
3  6  8
3  7  8
6  8  8
7  9  8
8  10  8
9  10  8

$$$$
