328
     RDKit          2D

 12 12  0  0  1  0  0  0  0  0999 V2000
   -2.1139   -2.0272    0.0000 O   0  0  0  0  0  0  0  0  0  0  0  0
    4.3024    0.4388    0.0000 O   0  0  0  0  0  0  0  0  0  0  0  0
   -4.0475    0.2665    0.0000 O   0  0  0  0  0  0  0  0  0  0  0  0
   -2.0610    1.9411    0.0000 O   0  0  0  0  0  0  0  0  0  0  0  0
   -0.1275   -0.3527    0.0000 C   0  0  0  0  0  0  0  0  0  0  0  0
   -1.6041   -0.6165    0.0000 C   0  0  0  0  0  0  0  0  0  0  0  0
    0.3824    1.0580    0.0000 C   0  0  0  0  0  0  0  0  0  0  0  0
    0.8393   -1.4995    0.0000 C   0  0  0  0  0  0  0  0  0  0  0  0
    1.8590    1.3219    0.0000 C   0  0  0  0  0  0  0  0  0  0  0  0
    2.3159   -1.2357    0.0000 C   0  0  0  0  0  0  0  0  0  0  0  0
    2.8258    0.1750    0.0000 C   0  0  0  0  0  0  0  0  0  0  0  0
   -2.5709    0.5304    0.0000 C   0  0  0  0  0  0  0  0  0  0  0  0
  1  6  1  0
  2 11  1  0
  3 12  1  0
  4 12  2  0
  5  6  1  0
  5  7  2  0
  5  8  1  0
  6 12  1  0
  7  9  1  0
  8 10  2  0
  9 11  2  0
 10 11  1  0
M  END
>  <PUBCHEM_COMPOUND_CID>  (1) 
328

>  <PUBCHEM_COMPOUND_CANONICALIZED>  (1) 
1

>  <PUBCHEM_CACTVS_COMPLEXITY>  (1) 
160

>  <PUBCHEM_CACTVS_HBOND_ACCEPTOR>  (1) 
4

>  <PUBCHEM_CACTVS_HBOND_DONOR>  (1) 
3

>  <PUBCHEM_CACTVS_ROTATABLE_BOND>  (1) 
2

>  <PUBCHEM_CACTVS_SUBSKEYS>  (1) 
AAADccBwOAAAAAAAAAAAAAAAAAAAAAAAAAAwAAAAAAAAAAABAAAAGgAACAAADBSgmAIwDoAAAgCIAiDSCAICAAAgIAAIiAFGCIgJNjKCFRKAcAAkwBEJmAeI6KSOIAAAAAAAAABAAAAAAAAAAAAAAAAAAA==

>  <PUBCHEM_IUPAC_OPENEYE_NAME>  (1) 
2-hydroxy-2-(4-hydroxyphenyl)acetic acid

>  <PUBCHEM_IUPAC_CAS_NAME>  (1) 
2-hydroxy-2-(4-hydroxyphenyl)acetic acid

>  <PUBCHEM_IUPAC_NAME_MARKUP>  (1) 
2-hydroxy-2-(4-hydroxyphenyl)acetic acid

>  <PUBCHEM_IUPAC_NAME>  (1) 
2-hydroxy-2-(4-hydroxyphenyl)acetic acid

>  <PUBCHEM_IUPAC_SYSTEMATIC_NAME>  (1) 
2-(4-hydroxyphenyl)-2-oxidanyl-ethanoic acid

>  <PUBCHEM_IUPAC_TRADITIONAL_NAME>  (1) 
2-hydroxy-2-(4-hydroxyphenyl)acetic acid

>  <PUBCHEM_IUPAC_INCHI>  (1) 
InChI=1S/C8H8O4/c9-6-3-1-5(2-4-6)7(10)8(11)12/h1-4,7,9-10H,(H,11,12)

>  <PUBCHEM_IUPAC_INCHIKEY>  (1) 
YHXHKYRQLYQUIH-UHFFFAOYSA-N

>  <PUBCHEM_XLOGP3>  (1) 
0.3

>  <PUBCHEM_EXACT_MASS>  (1) 
168.042259

>  <PUBCHEM_MOLECULAR_FORMULA>  (1) 
C8H8O4

>  <PUBCHEM_MOLECULAR_WEIGHT>  (1) 
168.15

>  <PUBCHEM_OPENEYE_CAN_SMILES>  (1) 
C1=CC(=CC=C1C(C(=O)O)O)O

>  <PUBCHEM_OPENEYE_ISO_SMILES>  (1) 
C1=CC(=CC=C1C(C(=O)O)O)O

>  <PUBCHEM_CACTVS_TPSA>  (1) 
77.8

>  <PUBCHEM_MONOISOTOPIC_WEIGHT>  (1) 
168.042259

>  <PUBCHEM_TOTAL_CHARGE>  (1) 
0

>  <PUBCHEM_HEAVY_ATOM_COUNT>  (1) 
12

>  <PUBCHEM_ATOM_DEF_STEREO_COUNT>  (1) 
0

>  <PUBCHEM_ATOM_UDEF_STEREO_COUNT>  (1) 
1

>  <PUBCHEM_BOND_DEF_STEREO_COUNT>  (1) 
0

>  <PUBCHEM_BOND_UDEF_STEREO_COUNT>  (1) 
0

>  <PUBCHEM_ISOTOPIC_ATOM_COUNT>  (1) 
0

>  <PUBCHEM_COMPONENT_COUNT>  (1) 
1

>  <PUBCHEM_CACTVS_TAUTO_COUNT>  (1) 
-1

>  <PUBCHEM_COORDINATE_TYPE>  (1) 
1
5
255

>  <PUBCHEM_BONDANNOTATIONS>  (1) 
6  1  3
10  11  8
5  7  8
5  8  8
7  9  8
8  10  8
9  11  8

$$$$
