329
     RDKit          2D

 15 14  0  0  1  0  0  0  0  0999 V2000
    5.0371   -0.1336    0.0000 S   0  0  0  0  0  0  0  0  0  0  0  0
   -4.0831    0.1341    0.0000 P   0  0  0  0  0  0  0  0  0  0  0  0
    2.5220   -1.7690    0.0000 O   0  0  0  0  0  0  0  0  0  0  0  0
    1.0263    1.9070    0.0000 O   0  0  0  0  0  0  0  0  0  0  0  0
   -2.7462   -0.5461    0.0000 O   0  0  0  0  0  0  0  0  0  0  0  0
   -0.0724   -1.9065    0.0000 O   0  0  0  0  0  0  0  0  0  0  0  0
   -3.4029    1.4710    0.0000 O   0  0  0  0  0  0  0  0  0  0  0  0
   -5.4201    0.8143    0.0000 O   0  0  0  0  0  0  0  0  0  0  0  0
   -4.7633   -1.2028    0.0000 O   0  0  0  0  0  0  0  0  0  0  0  0
    2.4426   -0.2711    0.0000 C   0  0  0  0  0  0  0  0  0  0  0  0
    1.1057    0.4091    0.0000 C   0  0  0  0  0  0  0  0  0  0  0  0
    3.7002    0.5466    0.0000 C   0  0  0  0  0  0  0  0  0  0  0  0
   -0.1518   -0.4086    0.0000 C   0  0  0  0  0  0  0  0  0  0  0  0
   -1.4887    0.2716    0.0000 C   0  0  0  0  0  0  0  0  0  0  0  0
    6.2946    0.6841    0.0000 C   0  0  0  0  0  0  0  0  0  0  0  0
  1 12  1  0
  1 15  1  0
  2  5  1  0
  2  7  1  0
  2  8  1  0
  2  9  2  0
  3 10  1  0
  4 11  1  0
  5 14  1  0
  6 13  2  0
 10 11  1  0
 10 12  1  0
 11 13  1  0
 13 14  1  0
M  END
>  <PUBCHEM_COMPOUND_CID>  (1) 
329

>  <PUBCHEM_COMPOUND_CANONICALIZED>  (1) 
1

>  <PUBCHEM_CACTVS_COMPLEXITY>  (1) 
252

>  <PUBCHEM_CACTVS_HBOND_ACCEPTOR>  (1) 
8

>  <PUBCHEM_CACTVS_HBOND_DONOR>  (1) 
4

>  <PUBCHEM_CACTVS_ROTATABLE_BOND>  (1) 
7

>  <PUBCHEM_CACTVS_SUBSKEYS>  (1) 
AAADccBgOAJAAAAAAAAAAAAAAAAAAAAAAAAAAAAAAAAAAAAAAAAAGgQACCAACBSkwAKCAAAAAxgIQIAQAIIAAAAAABAAAAFAAAABEBYgAAAAQAAFIAABAADAAAAAAAAAAAAAAAAAAAAAAAAAAAAAAAAAAA==

>  <PUBCHEM_IUPAC_OPENEYE_NAME>  (1) 
(3,4-dihydroxy-5-methylsulfanyl-2-oxo-pentyl) dihydrogen phosphate

>  <PUBCHEM_IUPAC_CAS_NAME>  (1) 
[3,4-dihydroxy-5-(methylthio)-2-oxopentyl] dihydrogen phosphate

>  <PUBCHEM_IUPAC_NAME_MARKUP>  (1) 
(3,4-dihydroxy-5-methylsulfanyl-2-oxopentyl) dihydrogen phosphate

>  <PUBCHEM_IUPAC_NAME>  (1) 
(3,4-dihydroxy-5-methylsulfanyl-2-oxopentyl) dihydrogen phosphate

>  <PUBCHEM_IUPAC_SYSTEMATIC_NAME>  (1) 
[5-methylsulfanyl-3,4-bis(oxidanyl)-2-oxidanylidene-pentyl] dihydrogen phosphate

>  <PUBCHEM_IUPAC_TRADITIONAL_NAME>  (1) 
[3,4-dihydroxy-2-keto-5-(methylthio)pentyl] dihydrogen phosphate

>  <PUBCHEM_IUPAC_INCHI>  (1) 
InChI=1S/C6H13O7PS/c1-15-3-5(8)6(9)4(7)2-13-14(10,11)12/h5-6,8-9H,2-3H2,1H3,(H2,10,11,12)

>  <PUBCHEM_IUPAC_INCHIKEY>  (1) 
CNSJRYUMVMWNMC-UHFFFAOYSA-N

>  <PUBCHEM_XLOGP3_AA>  (1) 
-2.4

>  <PUBCHEM_EXACT_MASS>  (1) 
260.011961

>  <PUBCHEM_MOLECULAR_FORMULA>  (1) 
C6H13O7PS

>  <PUBCHEM_MOLECULAR_WEIGHT>  (1) 
260.2

>  <PUBCHEM_OPENEYE_CAN_SMILES>  (1) 
CSCC(C(C(=O)COP(=O)(O)O)O)O

>  <PUBCHEM_OPENEYE_ISO_SMILES>  (1) 
CSCC(C(C(=O)COP(=O)(O)O)O)O

>  <PUBCHEM_CACTVS_TPSA>  (1) 
150

>  <PUBCHEM_MONOISOTOPIC_WEIGHT>  (1) 
260.011961

>  <PUBCHEM_TOTAL_CHARGE>  (1) 
0

>  <PUBCHEM_HEAVY_ATOM_COUNT>  (1) 
15

>  <PUBCHEM_ATOM_DEF_STEREO_COUNT>  (1) 
0

>  <PUBCHEM_ATOM_UDEF_STEREO_COUNT>  (1) 
2

>  <PUBCHEM_BOND_DEF_STEREO_COUNT>  (1) 
0

>  <PUBCHEM_BOND_UDEF_STEREO_COUNT>  (1) 
0

>  <PUBCHEM_ISOTOPIC_ATOM_COUNT>  (1) 
0

>  <PUBCHEM_COMPONENT_COUNT>  (1) 
1

>  <PUBCHEM_CACTVS_TAUTO_COUNT>  (1) 
-1

>  <PUBCHEM_COORDINATE_TYPE>  (1) 
1
5
255

>  <PUBCHEM_BONDANNOTATIONS>  (1) 
10  3  3
11  4  3

$$$$
