331
     RDKit          2D

 10  9  0  0  1  0  0  0  0  0999 V2000
    3.8971   -0.9000    0.0000 O   0  0  0  0  0  0  0  0  0  0  0  0
    2.5981    1.3500    0.0000 O   0  0  0  0  0  0  0  0  0  0  0  0
   -0.0000    1.3500    0.0000 N   0  0  0  0  0  0  0  0  0  0  0  0
   -2.5981    1.3500    0.0000 N   0  0  0  0  0  0  0  0  0  0  0  0
   -1.2990   -0.9000    0.0000 C   0  0  0  0  0  0  0  0  0  0  0  0
    0.0000   -0.1500    0.0000 C   0  0  0  0  0  0  0  0  0  0  0  0
   -2.5981   -0.1500    0.0000 C   0  0  0  0  0  0  0  0  0  0  0  0
    1.2990   -0.9000    0.0000 C   0  0  0  0  0  0  0  0  0  0  0  0
   -3.8971   -0.9000    0.0000 C   0  0  0  0  0  0  0  0  0  0  0  0
    2.5981   -0.1500    0.0000 C   0  0  0  0  0  0  0  0  0  0  0  0
  1 10  1  0
  2 10  2  0
  3  6  1  0
  4  7  1  0
  5  6  1  0
  5  7  1  0
  6  8  1  0
  7  9  1  0
  8 10  1  0
M  END
>  <PUBCHEM_COMPOUND_CID>  (1) 
331

>  <PUBCHEM_COMPOUND_CANONICALIZED>  (1) 
1

>  <PUBCHEM_CACTVS_COMPLEXITY>  (1) 
116

>  <PUBCHEM_CACTVS_HBOND_ACCEPTOR>  (1) 
4

>  <PUBCHEM_CACTVS_HBOND_DONOR>  (1) 
3

>  <PUBCHEM_CACTVS_ROTATABLE_BOND>  (1) 
4

>  <PUBCHEM_CACTVS_SUBSKEYS>  (1) 
AAADccBjMAAAAAAAAAAAAAAAAAAAAAAAAAAAAAAAAAAAAAAAAAAAHgAQCAAACCjBgAQCCABAAgAIAACQCAAAAAAAAAAAAIEAAAAAABoAwAAAQAAGEAAAAAGYWQEQAAAAAAAAAAAAAAAAAAAAAAAAAAAAAA==

>  <PUBCHEM_IUPAC_OPENEYE_NAME>  (1) 
3,5-diaminohexanoic acid

>  <PUBCHEM_IUPAC_CAS_NAME>  (1) 
3,5-diaminohexanoic acid

>  <PUBCHEM_IUPAC_NAME_MARKUP>  (1) 
3,5-diaminohexanoic acid

>  <PUBCHEM_IUPAC_NAME>  (1) 
3,5-diaminohexanoic acid

>  <PUBCHEM_IUPAC_SYSTEMATIC_NAME>  (1) 
3,5-bis(azanyl)hexanoic acid

>  <PUBCHEM_IUPAC_TRADITIONAL_NAME>  (1) 
3,5-diaminohexanoic acid

>  <PUBCHEM_IUPAC_INCHI>  (1) 
InChI=1S/C6H14N2O2/c1-4(7)2-5(8)3-6(9)10/h4-5H,2-3,7-8H2,1H3,(H,9,10)

>  <PUBCHEM_IUPAC_INCHIKEY>  (1) 
NGDLSXMSQYUVSJ-UHFFFAOYSA-N

>  <PUBCHEM_XLOGP3_AA>  (1) 
-3.6

>  <PUBCHEM_EXACT_MASS>  (1) 
146.105528

>  <PUBCHEM_MOLECULAR_FORMULA>  (1) 
C6H14N2O2

>  <PUBCHEM_MOLECULAR_WEIGHT>  (1) 
146.19

>  <PUBCHEM_OPENEYE_CAN_SMILES>  (1) 
CC(CC(CC(=O)O)N)N

>  <PUBCHEM_OPENEYE_ISO_SMILES>  (1) 
CC(CC(CC(=O)O)N)N

>  <PUBCHEM_CACTVS_TPSA>  (1) 
89.3

>  <PUBCHEM_MONOISOTOPIC_WEIGHT>  (1) 
146.105528

>  <PUBCHEM_TOTAL_CHARGE>  (1) 
0

>  <PUBCHEM_HEAVY_ATOM_COUNT>  (1) 
10

>  <PUBCHEM_ATOM_DEF_STEREO_COUNT>  (1) 
0

>  <PUBCHEM_ATOM_UDEF_STEREO_COUNT>  (1) 
2

>  <PUBCHEM_BOND_DEF_STEREO_COUNT>  (1) 
0

>  <PUBCHEM_BOND_UDEF_STEREO_COUNT>  (1) 
0

>  <PUBCHEM_ISOTOPIC_ATOM_COUNT>  (1) 
0

>  <PUBCHEM_COMPONENT_COUNT>  (1) 
1

>  <PUBCHEM_CACTVS_TAUTO_COUNT>  (1) 
-1

>  <PUBCHEM_COORDINATE_TYPE>  (1) 
1
5
255

>  <PUBCHEM_BONDANNOTATIONS>  (1) 
6  3  3
7  4  3

$$$$
