332
     RDKit          2D

 11 11  0  0  0  0  0  0  0  0999 V2000
   -1.9393   -1.5770    0.0000 O   0  0  0  0  0  0  0  0  0  0  0  0
   -2.9659    1.2418    0.0000 O   0  0  0  0  0  0  0  0  0  0  0  0
    1.4659    0.4613    0.0000 C   0  0  0  0  0  0  0  0  0  0  0  0
   -0.9753   -0.4278    0.0000 C   0  0  0  0  0  0  0  0  0  0  0  0
    0.5019   -0.6880    0.0000 C   0  0  0  0  0  0  0  0  0  0  0  0
   -1.4887    0.9817    0.0000 C   0  0  0  0  0  0  0  0  0  0  0  0
    0.9526    1.8707    0.0000 C   0  0  0  0  0  0  0  0  0  0  0  0
   -0.5247    2.1309    0.0000 C   0  0  0  0  0  0  0  0  0  0  0  0
    2.9431    0.2011    0.0000 C   0  0  0  0  0  0  0  0  0  0  0  0
   -1.4260   -2.9865    0.0000 C   0  0  0  0  0  0  0  0  0  0  0  0
    3.4564   -1.2083    0.0000 C   0  0  0  0  0  0  0  0  0  0  0  0
  1  4  1  0
  1 10  1  0
  2  6  1  0
  3  5  2  0
  3  7  1  0
  3  9  1  0
  4  5  1  0
  4  6  2  0
  6  8  1  0
  7  8  2  0
  9 11  2  0
M  END
>  <PUBCHEM_COMPOUND_CID>  (1) 
332

>  <PUBCHEM_COMPOUND_CANONICALIZED>  (1) 
1

>  <PUBCHEM_CACTVS_COMPLEXITY>  (1) 
134

>  <PUBCHEM_CACTVS_HBOND_ACCEPTOR>  (1) 
2

>  <PUBCHEM_CACTVS_HBOND_DONOR>  (1) 
1

>  <PUBCHEM_CACTVS_ROTATABLE_BOND>  (1) 
2

>  <PUBCHEM_CACTVS_SUBSKEYS>  (1) 
AAADccBwMAAAAAAAAAAAAAAAAAAAAAAAAAAwAAAAAAAAAAABAAAAGgAACAAADASAmAIyBoAABgCAAiBCAAACCAAgIAAIiAAGiIgNJiKGMRqAcCMkwBELuAeAwBAOIAABAAAAQABAAAIAAACAAAAAAAAAAA==

>  <PUBCHEM_IUPAC_OPENEYE_NAME>  (1) 
2-methoxy-4-vinyl-phenol

>  <PUBCHEM_IUPAC_CAS_NAME>  (1) 
4-ethenyl-2-methoxyphenol

>  <PUBCHEM_IUPAC_NAME_MARKUP>  (1) 
4-ethenyl-2-methoxyphenol

>  <PUBCHEM_IUPAC_NAME>  (1) 
4-ethenyl-2-methoxyphenol

>  <PUBCHEM_IUPAC_SYSTEMATIC_NAME>  (1) 
4-ethenyl-2-methoxy-phenol

>  <PUBCHEM_IUPAC_TRADITIONAL_NAME>  (1) 
2-methoxy-4-vinyl-phenol

>  <PUBCHEM_IUPAC_INCHI>  (1) 
InChI=1S/C9H10O2/c1-3-7-4-5-8(10)9(6-7)11-2/h3-6,10H,1H2,2H3

>  <PUBCHEM_IUPAC_INCHIKEY>  (1) 
YOMSJEATGXXYPX-UHFFFAOYSA-N

>  <PUBCHEM_XLOGP3>  (1) 
2.4

>  <PUBCHEM_EXACT_MASS>  (1) 
150.06808

>  <PUBCHEM_MOLECULAR_FORMULA>  (1) 
C9H10O2

>  <PUBCHEM_MOLECULAR_WEIGHT>  (1) 
150.17

>  <PUBCHEM_OPENEYE_CAN_SMILES>  (1) 
COC1=C(C=CC(=C1)C=C)O

>  <PUBCHEM_OPENEYE_ISO_SMILES>  (1) 
COC1=C(C=CC(=C1)C=C)O

>  <PUBCHEM_CACTVS_TPSA>  (1) 
29.5

>  <PUBCHEM_MONOISOTOPIC_WEIGHT>  (1) 
150.06808

>  <PUBCHEM_TOTAL_CHARGE>  (1) 
0

>  <PUBCHEM_HEAVY_ATOM_COUNT>  (1) 
11

>  <PUBCHEM_ATOM_DEF_STEREO_COUNT>  (1) 
0

>  <PUBCHEM_ATOM_UDEF_STEREO_COUNT>  (1) 
0

>  <PUBCHEM_BOND_DEF_STEREO_COUNT>  (1) 
0

>  <PUBCHEM_BOND_UDEF_STEREO_COUNT>  (1) 
0

>  <PUBCHEM_ISOTOPIC_ATOM_COUNT>  (1) 
0

>  <PUBCHEM_COMPONENT_COUNT>  (1) 
1

>  <PUBCHEM_CACTVS_TAUTO_COUNT>  (1) 
-1

>  <PUBCHEM_COORDINATE_TYPE>  (1) 
1
5
255

>  <PUBCHEM_BONDANNOTATIONS>  (1) 
3  5  8
3  7  8
4  5  8
4  6  8
6  8  8
7  8  8

$$$$
