333
     RDKit          2D

 23 23  0  0  1  0  0  0  0  0999 V2000
   -6.8783   -0.4109    0.0000 P   0  0  0  0  0  0  0  0  0  0  0  0
   -1.6019   -1.5984    0.0000 O   0  0  0  0  0  0  0  0  0  0  0  0
   -0.5288    2.2224    0.0000 O   0  0  0  0  0  0  0  0  0  0  0  0
   -3.1223    2.0675    0.0000 O   0  0  0  0  0  0  0  0  0  0  0  0
   -5.6263    0.4152    0.0000 O   0  0  0  0  0  0  0  0  0  0  0  0
   -6.0521   -1.6629    0.0000 O   0  0  0  0  0  0  0  0  0  0  0  0
   -8.1303   -1.2371    0.0000 O   0  0  0  0  0  0  0  0  0  0  0  0
   -7.7044    0.8410    0.0000 O   0  0  0  0  0  0  0  0  0  0  0  0
    7.3410    1.1899    0.0000 O   0  0  0  0  0  0  0  0  0  0  0  0
    5.0159   -3.4570    0.0000 O   0  0  0  0  0  0  0  0  0  0  0  0
    2.1541    0.8800    0.0000 N   0  0  0  0  0  0  0  0  0  0  0  0
    3.5850   -1.2885    0.0000 N   0  0  0  0  0  0  0  0  0  0  0  0
    6.1784   -1.1335    0.0000 N   0  0  0  0  0  0  0  0  0  0  0  0
    4.6581    2.5323    0.0000 N   0  0  0  0  0  0  0  0  0  0  0  0
   -1.6914   -0.1011    0.0000 C   0  0  0  0  0  0  0  0  0  0  0  0
   -0.4394    0.7251    0.0000 C   0  0  0  0  0  0  0  0  0  0  0  0
   -3.0328    0.5701    0.0000 C   0  0  0  0  0  0  0  0  0  0  0  0
    0.9021    0.0539    0.0000 C   0  0  0  0  0  0  0  0  0  0  0  0
   -4.2848   -0.2560    0.0000 C   0  0  0  0  0  0  0  0  0  0  0  0
    3.4955    0.2088    0.0000 C   0  0  0  0  0  0  0  0  0  0  0  0
    4.7475    1.0350    0.0000 C   0  0  0  0  0  0  0  0  0  0  0  0
    6.0890    0.3638    0.0000 C   0  0  0  0  0  0  0  0  0  0  0  0
    4.9264   -1.9597    0.0000 C   0  0  0  0  0  0  0  0  0  0  0  0
  1  5  1  0
  1  6  1  0
  1  7  1  0
  1  8  2  0
  2 15  1  0
  3 16  1  0
  4 17  1  0
  5 19  1  0
  9 22  2  0
 10 23  2  0
 11 18  1  0
 11 20  1  0
 12 20  1  0
 12 23  1  0
 13 22  1  0
 13 23  1  0
 14 21  1  0
 15 16  1  0
 15 17  1  0
 16 18  1  0
 17 19  1  0
 20 21  2  0
 21 22  1  0
M  END
>  <PUBCHEM_COMPOUND_CID>  (1) 
333

>  <PUBCHEM_COMPOUND_CANONICALIZED>  (1) 
1

>  <PUBCHEM_CACTVS_COMPLEXITY>  (1) 
547

>  <PUBCHEM_CACTVS_HBOND_ACCEPTOR>  (1) 
11

>  <PUBCHEM_CACTVS_HBOND_DONOR>  (1) 
9

>  <PUBCHEM_CACTVS_ROTATABLE_BOND>  (1) 
8

>  <PUBCHEM_CACTVS_SUBSKEYS>  (1) 
AAADceBzvAIAAAAAAAAAAAAAAAAAAAAAAAAgAAAAAAAAAAAAAAAAHgAQCCAACBzhgAYBAALAAxCIQAVQUICAAAAAAAAAAICIAECDUAIAgAAUQAAPFSIRAEDwEAIAAAAAAAAAAAAAAAAAAAAAAAAAAAAAAA==

>  <PUBCHEM_IUPAC_OPENEYE_NAME>  (1) 
[5-[(5-amino-2,4-dioxo-1H-pyrimidin-6-yl)amino]-2,3,4-trihydroxy-pentyl] dihydrogen phosphate

>  <PUBCHEM_IUPAC_CAS_NAME>  (1) 
[5-[(5-amino-2,4-dioxo-1H-pyrimidin-6-yl)amino]-2,3,4-trihydroxypentyl] dihydrogen phosphate

>  <PUBCHEM_IUPAC_NAME_MARKUP>  (1) 
[5-[(5-amino-2,4-dioxo-1<I>H</I>-pyrimidin-6-yl)amino]-2,3,4-trihydroxypentyl] dihydrogen phosphate

>  <PUBCHEM_IUPAC_NAME>  (1) 
[5-[(5-amino-2,4-dioxo-1H-pyrimidin-6-yl)amino]-2,3,4-trihydroxypentyl] dihydrogen phosphate

>  <PUBCHEM_IUPAC_SYSTEMATIC_NAME>  (1) 
[5-[[5-azanyl-2,4-bis(oxidanylidene)-1H-pyrimidin-6-yl]amino]-2,3,4-tris(oxidanyl)pentyl] dihydrogen phosphate

>  <PUBCHEM_IUPAC_TRADITIONAL_NAME>  (1) 
[5-[(5-amino-2,4-diketo-1H-pyrimidin-6-yl)amino]-2,3,4-trihydroxy-pentyl] dihydrogen phosphate

>  <PUBCHEM_IUPAC_INCHI>  (1) 
InChI=1S/C9H17N4O9P/c10-5-7(12-9(18)13-8(5)17)11-1-3(14)6(16)4(15)2-22-23(19,20)21/h3-4,6,14-16H,1-2,10H2,(H2,19,20,21)(H3,11,12,13,17,18)

>  <PUBCHEM_IUPAC_INCHIKEY>  (1) 
RQRINYISXYAZKL-UHFFFAOYSA-N

>  <PUBCHEM_XLOGP3_AA>  (1) 
-4.3

>  <PUBCHEM_EXACT_MASS>  (1) 
356.073315

>  <PUBCHEM_MOLECULAR_FORMULA>  (1) 
C9H17N4O9P

>  <PUBCHEM_MOLECULAR_WEIGHT>  (1) 
356.23

>  <PUBCHEM_OPENEYE_CAN_SMILES>  (1) 
C(C(C(C(COP(=O)(O)O)O)O)O)NC1=C(C(=O)NC(=O)N1)N

>  <PUBCHEM_OPENEYE_ISO_SMILES>  (1) 
C(C(C(C(COP(=O)(O)O)O)O)O)NC1=C(C(=O)NC(=O)N1)N

>  <PUBCHEM_CACTVS_TPSA>  (1) 
224

>  <PUBCHEM_MONOISOTOPIC_WEIGHT>  (1) 
356.073315

>  <PUBCHEM_TOTAL_CHARGE>  (1) 
0

>  <PUBCHEM_HEAVY_ATOM_COUNT>  (1) 
23

>  <PUBCHEM_ATOM_DEF_STEREO_COUNT>  (1) 
0

>  <PUBCHEM_ATOM_UDEF_STEREO_COUNT>  (1) 
3

>  <PUBCHEM_BOND_DEF_STEREO_COUNT>  (1) 
0

>  <PUBCHEM_BOND_UDEF_STEREO_COUNT>  (1) 
0

>  <PUBCHEM_ISOTOPIC_ATOM_COUNT>  (1) 
0

>  <PUBCHEM_COMPONENT_COUNT>  (1) 
1

>  <PUBCHEM_CACTVS_TAUTO_COUNT>  (1) 
-1

>  <PUBCHEM_COORDINATE_TYPE>  (1) 
1
5
255

>  <PUBCHEM_BONDANNOTATIONS>  (1) 
12  20  8
12  23  8
13  22  8
13  23  8
15  2  3
20  21  8
21  22  8
16  3  3
17  4  3

$$$$
