336
     RDKit          2D

  9  8  0  0  1  0  0  0  0  0999 V2000
    0.2826   -1.7410    0.0000 O   0  0  0  0  0  0  0  0  0  0  0  0
    3.0997   -0.7094    0.0000 O   0  0  0  0  0  0  0  0  0  0  0  0
    2.2062    1.7302    0.0000 O   0  0  0  0  0  0  0  0  0  0  0  0
   -2.2769   -1.2950    0.0000 O   0  0  0  0  0  0  0  0  0  0  0  0
   -0.6108    0.6986    0.0000 N   0  0  0  0  0  0  0  0  0  0  0  0
   -3.1703    1.1447    0.0000 N   0  0  0  0  0  0  0  0  0  0  0  0
    0.5402   -0.2633    0.0000 C   0  0  0  0  0  0  0  0  0  0  0  0
    1.9487    0.2525    0.0000 C   0  0  0  0  0  0  0  0  0  0  0  0
   -2.0193    0.1828    0.0000 C   0  0  0  0  0  0  0  0  0  0  0  0
  1  7  1  0
  2  8  1  0
  3  8  2  0
  4  9  2  0
  5  7  1  0
  5  9  1  0
  6  9  1  0
  7  8  1  0
M  END
>  <PUBCHEM_COMPOUND_CID>  (1) 
336

>  <PUBCHEM_COMPOUND_CANONICALIZED>  (1) 
1

>  <PUBCHEM_CACTVS_COMPLEXITY>  (1) 
134

>  <PUBCHEM_CACTVS_HBOND_ACCEPTOR>  (1) 
4

>  <PUBCHEM_CACTVS_HBOND_DONOR>  (1) 
4

>  <PUBCHEM_CACTVS_ROTATABLE_BOND>  (1) 
2

>  <PUBCHEM_CACTVS_SUBSKEYS>  (1) 
AAADcYBDOAAAAAAAAAAAAAAAAAAAAAAAAAAAAAAAAAAAAAAAAAAAHgAQCAAAAADhgAYBCALAAgAIAACQGAIAAAAAAAAAAIDIAAGDEAAAACAAAAAABgIRAAAAAAAAAAAAAAAAAAAAAAAAAAAAAAAAAAAAAA==

>  <PUBCHEM_IUPAC_OPENEYE_NAME>  (1) 
2-hydroxy-2-ureido-acetic acid

>  <PUBCHEM_IUPAC_CAS_NAME>  (1) 
2-(carbamoylamino)-2-hydroxyacetic acid

>  <PUBCHEM_IUPAC_NAME_MARKUP>  (1) 
2-(carbamoylamino)-2-hydroxyacetic acid

>  <PUBCHEM_IUPAC_NAME>  (1) 
2-(carbamoylamino)-2-hydroxyacetic acid

>  <PUBCHEM_IUPAC_SYSTEMATIC_NAME>  (1) 
2-(aminocarbonylamino)-2-oxidanyl-ethanoic acid

>  <PUBCHEM_IUPAC_TRADITIONAL_NAME>  (1) 
2-hydroxy-2-ureido-acetic acid

>  <PUBCHEM_IUPAC_INCHI>  (1) 
InChI=1S/C3H6N2O4/c4-3(9)5-1(6)2(7)8/h1,6H,(H,7,8)(H3,4,5,9)

>  <PUBCHEM_IUPAC_INCHIKEY>  (1) 
NWZYYCVIOKVTII-UHFFFAOYSA-N

>  <PUBCHEM_XLOGP3_AA>  (1) 
-2

>  <PUBCHEM_EXACT_MASS>  (1) 
134.032757

>  <PUBCHEM_MOLECULAR_FORMULA>  (1) 
C3H6N2O4

>  <PUBCHEM_MOLECULAR_WEIGHT>  (1) 
134.09

>  <PUBCHEM_OPENEYE_CAN_SMILES>  (1) 
C(C(=O)O)(NC(=O)N)O

>  <PUBCHEM_OPENEYE_ISO_SMILES>  (1) 
C(C(=O)O)(NC(=O)N)O

>  <PUBCHEM_CACTVS_TPSA>  (1) 
113

>  <PUBCHEM_MONOISOTOPIC_WEIGHT>  (1) 
134.032757

>  <PUBCHEM_TOTAL_CHARGE>  (1) 
0

>  <PUBCHEM_HEAVY_ATOM_COUNT>  (1) 
9

>  <PUBCHEM_ATOM_DEF_STEREO_COUNT>  (1) 
0

>  <PUBCHEM_ATOM_UDEF_STEREO_COUNT>  (1) 
1

>  <PUBCHEM_BOND_DEF_STEREO_COUNT>  (1) 
0

>  <PUBCHEM_BOND_UDEF_STEREO_COUNT>  (1) 
0

>  <PUBCHEM_ISOTOPIC_ATOM_COUNT>  (1) 
0

>  <PUBCHEM_COMPONENT_COUNT>  (1) 
1

>  <PUBCHEM_CACTVS_TAUTO_COUNT>  (1) 
-1

>  <PUBCHEM_COORDINATE_TYPE>  (1) 
1
5
255

>  <PUBCHEM_BONDANNOTATIONS>  (1) 
7  1  3

$$$$
