337
     RDKit          2D

  9  8  0  0  1  0  0  0  0  0999 V2000
    0.9132    1.6413    0.0000 O   0  0  0  0  0  0  0  0  0  0  0  0
   -0.4922   -2.0701    0.0000 O   0  0  0  0  0  0  0  0  0  0  0  0
    3.4674    0.0678    0.0000 O   0  0  0  0  0  0  0  0  0  0  0  0
   -1.6838    1.7154    0.0000 O   0  0  0  0  0  0  0  0  0  0  0  0
    0.8704    0.1419    0.0000 C   0  0  0  0  0  0  0  0  0  0  0  0
   -0.4495   -0.5707    0.0000 C   0  0  0  0  0  0  0  0  0  0  0  0
    2.1475   -0.6448    0.0000 C   0  0  0  0  0  0  0  0  0  0  0  0
   -1.7266    0.2160    0.0000 C   0  0  0  0  0  0  0  0  0  0  0  0
   -3.0465   -0.4967    0.0000 C   0  0  0  0  0  0  0  0  0  0  0  0
  1  5  1  0
  2  6  1  0
  3  7  1  0
  4  8  2  0
  5  6  1  0
  5  7  1  0
  6  8  1  0
  8  9  1  0
M  END
>  <PUBCHEM_COMPOUND_CID>  (1) 
337

>  <PUBCHEM_COMPOUND_CANONICALIZED>  (1) 
1

>  <PUBCHEM_CACTVS_COMPLEXITY>  (1) 
101

>  <PUBCHEM_CACTVS_HBOND_ACCEPTOR>  (1) 
4

>  <PUBCHEM_CACTVS_HBOND_DONOR>  (1) 
3

>  <PUBCHEM_CACTVS_ROTATABLE_BOND>  (1) 
3

>  <PUBCHEM_CACTVS_SUBSKEYS>  (1) 
AAADccBgOAAAAAAAAAAAAAAAAAAAAAAAAAAAAAAAAAAAAAAAAAAAGgAACAAACBSggAICAAAAAgAIAIAQAAIAAAAAAAAAAAFAAAABEBYAAAAAQAAFIAABAACCAAAAAAAAAAAAAAAAAAAAAAAAAAAAAAAAAA==

>  <PUBCHEM_IUPAC_OPENEYE_NAME>  (1) 
3,4,5-trihydroxypentan-2-one

>  <PUBCHEM_IUPAC_CAS_NAME>  (1) 
3,4,5-trihydroxy-2-pentanone

>  <PUBCHEM_IUPAC_NAME_MARKUP>  (1) 
3,4,5-trihydroxypentan-2-one

>  <PUBCHEM_IUPAC_NAME>  (1) 
3,4,5-trihydroxypentan-2-one

>  <PUBCHEM_IUPAC_SYSTEMATIC_NAME>  (1) 
3,4,5-tris(oxidanyl)pentan-2-one

>  <PUBCHEM_IUPAC_TRADITIONAL_NAME>  (1) 
3,4,5-trihydroxypentan-2-one

>  <PUBCHEM_IUPAC_INCHI>  (1) 
InChI=1S/C5H10O4/c1-3(7)5(9)4(8)2-6/h4-6,8-9H,2H2,1H3

>  <PUBCHEM_IUPAC_INCHIKEY>  (1) 
IGUZJYCAXLYZEE-UHFFFAOYSA-N

>  <PUBCHEM_XLOGP3_AA>  (1) 
-2

>  <PUBCHEM_EXACT_MASS>  (1) 
134.057909

>  <PUBCHEM_MOLECULAR_FORMULA>  (1) 
C5H10O4

>  <PUBCHEM_MOLECULAR_WEIGHT>  (1) 
134.13

>  <PUBCHEM_OPENEYE_CAN_SMILES>  (1) 
CC(=O)C(C(CO)O)O

>  <PUBCHEM_OPENEYE_ISO_SMILES>  (1) 
CC(=O)C(C(CO)O)O

>  <PUBCHEM_CACTVS_TPSA>  (1) 
77.8

>  <PUBCHEM_MONOISOTOPIC_WEIGHT>  (1) 
134.057909

>  <PUBCHEM_TOTAL_CHARGE>  (1) 
0

>  <PUBCHEM_HEAVY_ATOM_COUNT>  (1) 
9

>  <PUBCHEM_ATOM_DEF_STEREO_COUNT>  (1) 
0

>  <PUBCHEM_ATOM_UDEF_STEREO_COUNT>  (1) 
2

>  <PUBCHEM_BOND_DEF_STEREO_COUNT>  (1) 
0

>  <PUBCHEM_BOND_UDEF_STEREO_COUNT>  (1) 
0

>  <PUBCHEM_ISOTOPIC_ATOM_COUNT>  (1) 
0

>  <PUBCHEM_COMPONENT_COUNT>  (1) 
1

>  <PUBCHEM_CACTVS_TAUTO_COUNT>  (1) 
-1

>  <PUBCHEM_COORDINATE_TYPE>  (1) 
1
5
255

>  <PUBCHEM_BONDANNOTATIONS>  (1) 
5  1  3
6  2  3

$$$$
