341
     RDKit          2D

 23 24  0  0  0  0  0  0  0  0999 V2000
    0.1732   -0.8350    0.0000 O   0  0  0  0  0  0  0  0  0  0  0  0
    1.8997   -3.2885    0.0000 O   0  0  0  0  0  0  0  0  0  0  0  0
    4.8876   -3.0201    0.0000 O   0  0  0  0  0  0  0  0  0  0  0  0
   -4.9395   -2.5986    0.0000 O   0  0  0  0  0  0  0  0  0  0  0  0
   -5.4044    2.5767    0.0000 O   0  0  0  0  0  0  0  0  0  0  0  0
   -6.6659   -0.1452    0.0000 O   0  0  0  0  0  0  0  0  0  0  0  0
   -0.0592    1.7526    0.0000 O   0  0  0  0  0  0  0  0  0  0  0  0
    5.9167    2.2894    0.0000 O   0  0  0  0  0  0  0  0  0  0  0  0
    3.5595    3.3820    0.0000 O   0  0  0  0  0  0  0  0  0  0  0  0
    1.6672   -0.7008    0.0000 C   0  0  0  0  0  0  0  0  0  0  0  0
   -2.1840    0.2575    0.0000 C   0  0  0  0  0  0  0  0  0  0  0  0
    2.5304   -1.9276    0.0000 C   0  0  0  0  0  0  0  0  0  0  0  0
    3.7920    0.7943    0.0000 C   0  0  0  0  0  0  0  0  0  0  0  0
    2.2980    0.6601    0.0000 C   0  0  0  0  0  0  0  0  0  0  0  0
    4.0244   -1.7933    0.0000 C   0  0  0  0  0  0  0  0  0  0  0  0
   -3.0472    1.4842    0.0000 C   0  0  0  0  0  0  0  0  0  0  0  0
   -2.8147   -1.1035    0.0000 C   0  0  0  0  0  0  0  0  0  0  0  0
    4.6552   -0.4324    0.0000 C   0  0  0  0  0  0  0  0  0  0  0  0
   -0.6900    0.3917    0.0000 C   0  0  0  0  0  0  0  0  0  0  0  0
   -4.3087   -1.2377    0.0000 C   0  0  0  0  0  0  0  0  0  0  0  0
   -4.5412    1.3500    0.0000 C   0  0  0  0  0  0  0  0  0  0  0  0
   -5.1719   -0.0110    0.0000 C   0  0  0  0  0  0  0  0  0  0  0  0
    4.4227    2.1552    0.0000 C   0  0  0  0  0  0  0  0  0  0  0  0
  1 10  1  0
  1 19  1  0
  2 12  1  0
  3 15  1  0
  4 20  1  0
  5 21  1  0
  6 22  1  0
  7 19  2  0
  8 23  1  0
  9 23  2  0
 10 12  2  0
 10 14  1  0
 11 16  2  0
 11 17  1  0
 11 19  1  0
 12 15  1  0
 13 14  2  0
 13 18  1  0
 13 23  1  0
 15 18  2  0
 16 21  1  0
 17 20  2  0
 20 22  1  0
 21 22  2  0
M  END
>  <PUBCHEM_COMPOUND_CID>  (1) 
341

>  <PUBCHEM_COMPOUND_CANONICALIZED>  (1) 
1

>  <PUBCHEM_CACTVS_COMPLEXITY>  (1) 
442

>  <PUBCHEM_CACTVS_HBOND_ACCEPTOR>  (1) 
9

>  <PUBCHEM_CACTVS_HBOND_DONOR>  (1) 
6

>  <PUBCHEM_CACTVS_ROTATABLE_BOND>  (1) 
4

>  <PUBCHEM_CACTVS_SUBSKEYS>  (1) 
AAADccBwPAAAAAAAAAAAAAAAAAAAAAAAAAAwYAAAAAAAAAABQAAAGgAACAAADASAmAAwDoAABgCIAiDSCAACCAAkIAAAiAEGiMgNJzKGNRqCeyOlwBULuYfK7DzOIAABCAAAQABAAAIQAACAAAAAAAAAAA==

>  <PUBCHEM_IUPAC_OPENEYE_NAME>  (1) 
3,4-dihydroxy-5-(3,4,5-trihydroxybenzoyl)oxy-benzoic acid

>  <PUBCHEM_IUPAC_CAS_NAME>  (1) 
3,4-dihydroxy-5-[oxo-(3,4,5-trihydroxyphenyl)methoxy]benzoic acid

>  <PUBCHEM_IUPAC_NAME_MARKUP>  (1) 
3,4-dihydroxy-5-(3,4,5-trihydroxybenzoyl)oxybenzoic acid

>  <PUBCHEM_IUPAC_NAME>  (1) 
3,4-dihydroxy-5-(3,4,5-trihydroxybenzoyl)oxybenzoic acid

>  <PUBCHEM_IUPAC_SYSTEMATIC_NAME>  (1) 
3,4-bis(oxidanyl)-5-[3,4,5-tris(oxidanyl)phenyl]carbonyloxy-benzoic acid

>  <PUBCHEM_IUPAC_TRADITIONAL_NAME>  (1) 
3-galloyloxy-4,5-dihydroxy-benzoic acid

>  <PUBCHEM_IUPAC_INCHI>  (1) 
InChI=1S/C14H10O9/c15-7-2-6(3-8(16)11(7)18)14(22)23-10-4-5(13(20)21)1-9(17)12(10)19/h1-4,15-19H,(H,20,21)

>  <PUBCHEM_IUPAC_INCHIKEY>  (1) 
COVFEVWNJUOYRL-UHFFFAOYSA-N

>  <PUBCHEM_XLOGP3_AA>  (1) 
1.1

>  <PUBCHEM_EXACT_MASS>  (1) 
322.032482

>  <PUBCHEM_MOLECULAR_FORMULA>  (1) 
C14H10O9

>  <PUBCHEM_MOLECULAR_WEIGHT>  (1) 
322.22

>  <PUBCHEM_OPENEYE_CAN_SMILES>  (1) 
C1=C(C=C(C(=C1O)O)O)C(=O)OC2=CC(=CC(=C2O)O)C(=O)O

>  <PUBCHEM_OPENEYE_ISO_SMILES>  (1) 
C1=C(C=C(C(=C1O)O)O)C(=O)OC2=CC(=CC(=C2O)O)C(=O)O

>  <PUBCHEM_CACTVS_TPSA>  (1) 
165

>  <PUBCHEM_MONOISOTOPIC_WEIGHT>  (1) 
322.032482

>  <PUBCHEM_TOTAL_CHARGE>  (1) 
0

>  <PUBCHEM_HEAVY_ATOM_COUNT>  (1) 
23

>  <PUBCHEM_ATOM_DEF_STEREO_COUNT>  (1) 
0

>  <PUBCHEM_ATOM_UDEF_STEREO_COUNT>  (1) 
0

>  <PUBCHEM_BOND_DEF_STEREO_COUNT>  (1) 
0

>  <PUBCHEM_BOND_UDEF_STEREO_COUNT>  (1) 
0

>  <PUBCHEM_ISOTOPIC_ATOM_COUNT>  (1) 
0

>  <PUBCHEM_COMPONENT_COUNT>  (1) 
1

>  <PUBCHEM_CACTVS_TAUTO_COUNT>  (1) 
-1

>  <PUBCHEM_COORDINATE_TYPE>  (1) 
1
5
255

>  <PUBCHEM_BONDANNOTATIONS>  (1) 
10  12  8
10  14  8
11  16  8
11  17  8
12  15  8
13  14  8
13  18  8
15  18  8
16  21  8
17  20  8
20  22  8
21  22  8

$$$$
