343
     RDKit          2D

 15 16  0  0  1  0  0  0  0  0999 V2000
    2.7202   -0.0000    0.0000 P   0  0  0  0  0  0  0  0  0  0  0  0
    1.8385    1.2135    0.0000 O   0  0  0  0  0  0  0  0  0  0  0  0
    1.8385   -1.2135    0.0000 O   0  0  0  0  0  0  0  0  0  0  0  0
   -0.8871    3.0000    0.0000 O   0  0  0  0  0  0  0  0  0  0  0  0
   -0.8871   -3.0000    0.0000 O   0  0  0  0  0  0  0  0  0  0  0  0
   -3.4852    1.5000    0.0000 O   0  0  0  0  0  0  0  0  0  0  0  0
   -3.4852   -1.5000    0.0000 O   0  0  0  0  0  0  0  0  0  0  0  0
    3.8349   -1.0037    0.0000 O   0  0  0  0  0  0  0  0  0  0  0  0
    3.8349    1.0037    0.0000 O   0  0  0  0  0  0  0  0  0  0  0  0
    0.4119    0.7500    0.0000 C   0  0  0  0  0  0  0  0  0  0  0  0
    0.4119   -0.7500    0.0000 C   0  0  0  0  0  0  0  0  0  0  0  0
   -0.8871    1.5000    0.0000 C   0  0  0  0  0  0  0  0  0  0  0  0
   -0.8871   -1.5000    0.0000 C   0  0  0  0  0  0  0  0  0  0  0  0
   -2.1861    0.7500    0.0000 C   0  0  0  0  0  0  0  0  0  0  0  0
   -2.1861   -0.7500    0.0000 C   0  0  0  0  0  0  0  0  0  0  0  0
  1  2  1  0
  1  3  1  0
  1  8  1  0
  1  9  2  0
  2 10  1  0
  3 11  1  0
  4 12  1  0
  5 13  1  0
  6 14  1  0
  7 15  1  0
 10 11  1  0
 10 12  1  0
 11 13  1  0
 12 14  1  0
 13 15  1  0
 14 15  1  0
M  END
>  <PUBCHEM_COMPOUND_CID>  (1) 
343

>  <PUBCHEM_COMPOUND_CANONICALIZED>  (1) 
1

>  <PUBCHEM_CACTVS_COMPLEXITY>  (1) 
282

>  <PUBCHEM_CACTVS_HBOND_ACCEPTOR>  (1) 
8

>  <PUBCHEM_CACTVS_HBOND_DONOR>  (1) 
5

>  <PUBCHEM_CACTVS_ROTATABLE_BOND>  (1) 
0

>  <PUBCHEM_CACTVS_SUBSKEYS>  (1) 
AAADccBgPAIAAAAAAAAAAAAAAAAAASAAAAAwAAAAAAAAAEgAAAAAGgAACCAACBSggAIAAAAAAxAAQAAAAIAAAAAAAAAAAAAAAAABEAIAAAAAQAAFAAABAAHAYAQAAAAAAAAAAAACAAAQAACAAAAAAAAAAA==

>  <PUBCHEM_IUPAC_OPENEYE_NAME>  (1) 
2-hydroxy-2-oxo-3a,4,5,6,7,7a-hexahydrobenzo[d][1,3,2]dioxaphosphole-4,5,6,7-tetrol

>  <PUBCHEM_IUPAC_CAS_NAME>  (1) 
2-hydroxy-2-oxo-3a,4,5,6,7,7a-hexahydrobenzo[d][1,3,2]dioxaphosphole-4,5,6,7-tetrol

>  <PUBCHEM_IUPAC_NAME_MARKUP>  (1) 
2-hydroxy-2-oxo-3<I>a</I>,4,5,6,7,7<I>a</I>-hexahydrobenzo[d][1,3,2]dioxaphosphole-4,5,6,7-tetrol

>  <PUBCHEM_IUPAC_NAME>  (1) 
2-hydroxy-2-oxo-3a,4,5,6,7,7a-hexahydrobenzo[d][1,3,2]dioxaphosphole-4,5,6,7-tetrol

>  <PUBCHEM_IUPAC_SYSTEMATIC_NAME>  (1) 
2-oxidanyl-2-oxidanylidene-3a,4,5,6,7,7a-hexahydrobenzo[d][1,3,2]dioxaphosphole-4,5,6,7-tetrol

>  <PUBCHEM_IUPAC_TRADITIONAL_NAME>  (1) 
2-hydroxy-2-keto-3a,4,5,6,7,7a-hexahydrobenzo[d][1,3,2]dioxaphosphole-4,5,6,7-tetrol

>  <PUBCHEM_IUPAC_INCHI>  (1) 
InChI=1S/C6H11O8P/c7-1-2(8)4(10)6-5(3(1)9)13-15(11,12)14-6/h1-10H,(H,11,12)

>  <PUBCHEM_IUPAC_INCHIKEY>  (1) 
SXHMVNXROAUURW-UHFFFAOYSA-N

>  <PUBCHEM_XLOGP3_AA>  (1) 
-3.8

>  <PUBCHEM_EXACT_MASS>  (1) 
242.019154

>  <PUBCHEM_MOLECULAR_FORMULA>  (1) 
C6H11O8P

>  <PUBCHEM_MOLECULAR_WEIGHT>  (1) 
242.12

>  <PUBCHEM_OPENEYE_CAN_SMILES>  (1) 
C1(C(C(C2C(C1O)OP(=O)(O2)O)O)O)O

>  <PUBCHEM_OPENEYE_ISO_SMILES>  (1) 
C1(C(C(C2C(C1O)OP(=O)(O2)O)O)O)O

>  <PUBCHEM_CACTVS_TPSA>  (1) 
137

>  <PUBCHEM_MONOISOTOPIC_WEIGHT>  (1) 
242.019154

>  <PUBCHEM_TOTAL_CHARGE>  (1) 
0

>  <PUBCHEM_HEAVY_ATOM_COUNT>  (1) 
15

>  <PUBCHEM_ATOM_DEF_STEREO_COUNT>  (1) 
0

>  <PUBCHEM_ATOM_UDEF_STEREO_COUNT>  (1) 
6

>  <PUBCHEM_BOND_DEF_STEREO_COUNT>  (1) 
0

>  <PUBCHEM_BOND_UDEF_STEREO_COUNT>  (1) 
0

>  <PUBCHEM_ISOTOPIC_ATOM_COUNT>  (1) 
0

>  <PUBCHEM_COMPONENT_COUNT>  (1) 
1

>  <PUBCHEM_CACTVS_TAUTO_COUNT>  (1) 
-1

>  <PUBCHEM_COORDINATE_TYPE>  (1) 
1
5
255

>  <PUBCHEM_BONDANNOTATIONS>  (1) 
10  2  3
11  3  3
12  4  3
13  5  3
14  6  3
15  7  3

$$$$
