346
     RDKit          2D

 19 20  0  0  1  0  0  0  0  0999 V2000
   -0.6609   -0.5797    0.0000 O   0  0  0  0  0  0  0  0  0  0  0  0
   -4.6454    1.5117    0.0000 O   0  0  0  0  0  0  0  0  0  0  0  0
   -4.5247   -1.4859    0.0000 O   0  0  0  0  0  0  0  0  0  0  0  0
    0.5465    1.7208    0.0000 O   0  0  0  0  0  0  0  0  0  0  0  0
   -2.1098    3.1150    0.0000 O   0  0  0  0  0  0  0  0  0  0  0  0
   -0.5402   -3.5773    0.0000 O   0  0  0  0  0  0  0  0  0  0  0  0
    5.8592   -1.0677    0.0000 O   0  0  0  0  0  0  0  0  0  0  0  0
   -3.3172    0.8146    0.0000 C   0  0  0  0  0  0  0  0  0  0  0  0
   -3.2569   -0.6842    0.0000 C   0  0  0  0  0  0  0  0  0  0  0  0
   -2.0494    1.6162    0.0000 C   0  0  0  0  0  0  0  0  0  0  0  0
   -1.9287   -1.3814    0.0000 C   0  0  0  0  0  0  0  0  0  0  0  0
   -0.7213    0.9191    0.0000 C   0  0  0  0  0  0  0  0  0  0  0  0
   -1.8684   -2.8801    0.0000 C   0  0  0  0  0  0  0  0  0  0  0  0
    1.8747    1.0236    0.0000 C   0  0  0  0  0  0  0  0  0  0  0  0
    1.9351   -0.4752    0.0000 C   0  0  0  0  0  0  0  0  0  0  0  0
    3.1425    1.8253    0.0000 C   0  0  0  0  0  0  0  0  0  0  0  0
    3.2632   -1.1723    0.0000 C   0  0  0  0  0  0  0  0  0  0  0  0
    4.4707    1.1282    0.0000 C   0  0  0  0  0  0  0  0  0  0  0  0
    4.5310   -0.3706    0.0000 C   0  0  0  0  0  0  0  0  0  0  0  0
  1 11  1  0
  1 12  1  0
  2  8  1  0
  3  9  1  0
  4 12  1  0
  4 14  1  0
  5 10  1  0
  6 13  1  0
  7 19  1  0
  8  9  1  0
  8 10  1  0
  9 11  1  0
 10 12  1  0
 11 13  1  0
 14 15  2  0
 14 16  1  0
 15 17  1  0
 16 18  2  0
 17 19  2  0
 18 19  1  0
M  END
>  <PUBCHEM_COMPOUND_CID>  (1) 
346

>  <PUBCHEM_COMPOUND_CANONICALIZED>  (1) 
1

>  <PUBCHEM_CACTVS_COMPLEXITY>  (1) 
279

>  <PUBCHEM_CACTVS_HBOND_ACCEPTOR>  (1) 
7

>  <PUBCHEM_CACTVS_HBOND_DONOR>  (1) 
5

>  <PUBCHEM_CACTVS_ROTATABLE_BOND>  (1) 
3

>  <PUBCHEM_CACTVS_SUBSKEYS>  (1) 
AAADceBwOAAAAAAAAAAAAAAAAAAAAAAAAAA0QAAAAAAAAAABAAAAGgAACAAACBSwkAMwDoAABgCAACBCAAACCAAgIAAIiAAGCIgdNiKGMRqieCClwBEPuAfAYAwAAQAAAAAAAAACAAAAAAAAAAAAAAAAAA==

>  <PUBCHEM_IUPAC_OPENEYE_NAME>  (1) 
2-(hydroxymethyl)-6-(4-hydroxyphenoxy)tetrahydropyran-3,4,5-triol

>  <PUBCHEM_IUPAC_CAS_NAME>  (1) 
2-(hydroxymethyl)-6-(4-hydroxyphenoxy)oxane-3,4,5-triol

>  <PUBCHEM_IUPAC_NAME_MARKUP>  (1) 
2-(hydroxymethyl)-6-(4-hydroxyphenoxy)oxane-3,4,5-triol

>  <PUBCHEM_IUPAC_NAME>  (1) 
2-(hydroxymethyl)-6-(4-hydroxyphenoxy)oxane-3,4,5-triol

>  <PUBCHEM_IUPAC_SYSTEMATIC_NAME>  (1) 
2-(hydroxymethyl)-6-(4-oxidanylphenoxy)oxane-3,4,5-triol

>  <PUBCHEM_IUPAC_TRADITIONAL_NAME>  (1) 
2-(4-hydroxyphenoxy)-6-methylol-tetrahydropyran-3,4,5-triol

>  <PUBCHEM_IUPAC_INCHI>  (1) 
InChI=1S/C12H16O7/c13-5-8-9(15)10(16)11(17)12(19-8)18-7-3-1-6(14)2-4-7/h1-4,8-17H,5H2

>  <PUBCHEM_IUPAC_INCHIKEY>  (1) 
BJRNKVDFDLYUGJ-UHFFFAOYSA-N

>  <PUBCHEM_XLOGP3>  (1) 
-0.7

>  <PUBCHEM_EXACT_MASS>  (1) 
272.089603

>  <PUBCHEM_MOLECULAR_FORMULA>  (1) 
C12H16O7

>  <PUBCHEM_MOLECULAR_WEIGHT>  (1) 
272.25

>  <PUBCHEM_OPENEYE_CAN_SMILES>  (1) 
C1=CC(=CC=C1O)OC2C(C(C(C(O2)CO)O)O)O

>  <PUBCHEM_OPENEYE_ISO_SMILES>  (1) 
C1=CC(=CC=C1O)OC2C(C(C(C(O2)CO)O)O)O

>  <PUBCHEM_CACTVS_TPSA>  (1) 
120

>  <PUBCHEM_MONOISOTOPIC_WEIGHT>  (1) 
272.089603

>  <PUBCHEM_TOTAL_CHARGE>  (1) 
0

>  <PUBCHEM_HEAVY_ATOM_COUNT>  (1) 
19

>  <PUBCHEM_ATOM_DEF_STEREO_COUNT>  (1) 
0

>  <PUBCHEM_ATOM_UDEF_STEREO_COUNT>  (1) 
5

>  <PUBCHEM_BOND_DEF_STEREO_COUNT>  (1) 
0

>  <PUBCHEM_BOND_UDEF_STEREO_COUNT>  (1) 
0

>  <PUBCHEM_ISOTOPIC_ATOM_COUNT>  (1) 
0

>  <PUBCHEM_COMPONENT_COUNT>  (1) 
1

>  <PUBCHEM_CACTVS_TAUTO_COUNT>  (1) 
-1

>  <PUBCHEM_COORDINATE_TYPE>  (1) 
1
5
255

>  <PUBCHEM_BONDANNOTATIONS>  (1) 
11  13  3
14  15  8
14  16  8
15  17  8
16  18  8
17  19  8
18  19  8
8  2  3
9  3  3
12  4  3
10  5  3

$$$$
