348
     RDKit          2D

 23 24  0  0  1  0  0  0  0  0999 V2000
   -1.3032   -3.9373    0.0000 P   0  0  0  0  0  0  0  0  0  0  0  0
   -0.4841    0.4876    0.0000 O   0  0  0  0  0  0  0  0  0  0  0  0
   -4.4527    0.4595    0.0000 O   0  0  0  0  0  0  0  0  0  0  0  0
   -3.9066    3.4093    0.0000 O   0  0  0  0  0  0  0  0  0  0  0  0
    1.2027    2.4635    0.0000 O   0  0  0  0  0  0  0  0  0  0  0  0
   -1.0789    4.4114    0.0000 O   0  0  0  0  0  0  0  0  0  0  0  0
   -1.0302   -2.4623    0.0000 O   0  0  0  0  0  0  0  0  0  0  0  0
   -2.7782   -3.6642    0.0000 O   0  0  0  0  0  0  0  0  0  0  0  0
   -1.5763   -5.4122    0.0000 O   0  0  0  0  0  0  0  0  0  0  0  0
    0.1717   -4.2103    0.0000 O   0  0  0  0  0  0  0  0  0  0  0  0
    5.7660   -1.4322    0.0000 O   0  0  0  0  0  0  0  0  0  0  0  0
   -3.0388    0.9605    0.0000 C   0  0  0  0  0  0  0  0  0  0  0  0
   -2.7658    2.4354    0.0000 C   0  0  0  0  0  0  0  0  0  0  0  0
   -1.8980   -0.0134    0.0000 C   0  0  0  0  0  0  0  0  0  0  0  0
   -1.3519    2.9364    0.0000 C   0  0  0  0  0  0  0  0  0  0  0  0
   -0.2111    1.9625    0.0000 C   0  0  0  0  0  0  0  0  0  0  0  0
   -2.1710   -1.4884    0.0000 C   0  0  0  0  0  0  0  0  0  0  0  0
    2.3436    1.4896    0.0000 C   0  0  0  0  0  0  0  0  0  0  0  0
    2.0705    0.0147    0.0000 C   0  0  0  0  0  0  0  0  0  0  0  0
    3.7574    1.9906    0.0000 C   0  0  0  0  0  0  0  0  0  0  0  0
    3.2114   -0.9593    0.0000 C   0  0  0  0  0  0  0  0  0  0  0  0
    4.8982    1.0167    0.0000 C   0  0  0  0  0  0  0  0  0  0  0  0
    4.6252   -0.4582    0.0000 C   0  0  0  0  0  0  0  0  0  0  0  0
  1  7  1  0
  1  8  1  0
  1  9  1  0
  1 10  2  0
  2 14  1  0
  2 16  1  0
  3 12  1  0
  4 13  1  0
  5 16  1  0
  5 18  1  0
  6 15  1  0
  7 17  1  0
 11 23  1  0
 12 13  1  0
 12 14  1  0
 13 15  1  0
 14 17  1  0
 15 16  1  0
 18 19  2  0
 18 20  1  0
 19 21  1  0
 20 22  2  0
 21 23  2  0
 22 23  1  0
M  END
>  <PUBCHEM_COMPOUND_CID>  (1) 
348

>  <PUBCHEM_COMPOUND_CANONICALIZED>  (1) 
1

>  <PUBCHEM_CACTVS_COMPLEXITY>  (1) 
420

>  <PUBCHEM_CACTVS_HBOND_ACCEPTOR>  (1) 
10

>  <PUBCHEM_CACTVS_HBOND_DONOR>  (1) 
6

>  <PUBCHEM_CACTVS_ROTATABLE_BOND>  (1) 
5

>  <PUBCHEM_CACTVS_SUBSKEYS>  (1) 
AAADceBwPAIAAAAAAAAAAAAAAAAAAAAAAAA0QAAAAAAAAAABAAAAGgAACCAACBSwkAMwDoAABxCAQCBCAIACCAAgIAAIiAAGCIgdNiKGMRqieCClwBEPuAfAYAwAAQAAAAAAAAACAAAAAAAAAAAAAAAAAA==

>  <PUBCHEM_IUPAC_OPENEYE_NAME>  (1) 
[3,4,5-trihydroxy-6-(4-hydroxyphenoxy)tetrahydropyran-2-yl]methyl dihydrogen phosphate

>  <PUBCHEM_IUPAC_CAS_NAME>  (1) 
[3,4,5-trihydroxy-6-(4-hydroxyphenoxy)-2-oxanyl]methyl dihydrogen phosphate

>  <PUBCHEM_IUPAC_NAME_MARKUP>  (1) 
[3,4,5-trihydroxy-6-(4-hydroxyphenoxy)oxan-2-yl]methyl dihydrogen phosphate

>  <PUBCHEM_IUPAC_NAME>  (1) 
[3,4,5-trihydroxy-6-(4-hydroxyphenoxy)oxan-2-yl]methyl dihydrogen phosphate

>  <PUBCHEM_IUPAC_SYSTEMATIC_NAME>  (1) 
[3,4,5-tris(oxidanyl)-6-(4-oxidanylphenoxy)oxan-2-yl]methyl dihydrogen phosphate

>  <PUBCHEM_IUPAC_TRADITIONAL_NAME>  (1) 
[3,4,5-trihydroxy-6-(4-hydroxyphenoxy)tetrahydropyran-2-yl]methyl dihydrogen phosphate

>  <PUBCHEM_IUPAC_INCHI>  (1) 
InChI=1S/C12H17O10P/c13-6-1-3-7(4-2-6)21-12-11(16)10(15)9(14)8(22-12)5-20-23(17,18)19/h1-4,8-16H,5H2,(H2,17,18,19)

>  <PUBCHEM_IUPAC_INCHIKEY>  (1) 
FBHYCDOVYMVLEN-UHFFFAOYSA-N

>  <PUBCHEM_XLOGP3>  (1) 
-2.4

>  <PUBCHEM_EXACT_MASS>  (1) 
352.055934

>  <PUBCHEM_MOLECULAR_FORMULA>  (1) 
C12H17O10P

>  <PUBCHEM_MOLECULAR_WEIGHT>  (1) 
352.23

>  <PUBCHEM_OPENEYE_CAN_SMILES>  (1) 
C1=CC(=CC=C1O)OC2C(C(C(C(O2)COP(=O)(O)O)O)O)O

>  <PUBCHEM_OPENEYE_ISO_SMILES>  (1) 
C1=CC(=CC=C1O)OC2C(C(C(C(O2)COP(=O)(O)O)O)O)O

>  <PUBCHEM_CACTVS_TPSA>  (1) 
166

>  <PUBCHEM_MONOISOTOPIC_WEIGHT>  (1) 
352.055934

>  <PUBCHEM_TOTAL_CHARGE>  (1) 
0

>  <PUBCHEM_HEAVY_ATOM_COUNT>  (1) 
23

>  <PUBCHEM_ATOM_DEF_STEREO_COUNT>  (1) 
0

>  <PUBCHEM_ATOM_UDEF_STEREO_COUNT>  (1) 
5

>  <PUBCHEM_BOND_DEF_STEREO_COUNT>  (1) 
0

>  <PUBCHEM_BOND_UDEF_STEREO_COUNT>  (1) 
0

>  <PUBCHEM_ISOTOPIC_ATOM_COUNT>  (1) 
0

>  <PUBCHEM_COMPONENT_COUNT>  (1) 
1

>  <PUBCHEM_CACTVS_TAUTO_COUNT>  (1) 
-1

>  <PUBCHEM_COORDINATE_TYPE>  (1) 
1
5
255

>  <PUBCHEM_BONDANNOTATIONS>  (1) 
14  17  3
18  19  8
18  20  8
19  21  8
20  22  8
21  23  8
22  23  8
12  3  3
13  4  3
16  5  3
15  6  3

$$$$
