350
     RDKit          2D

 21 20  0  0  1  0  0  0  0  0999 V2000
   -9.8306    0.6824    0.0000 S   0  0  0  0  0  0  0  0  0  0  0  0
    5.7574    0.5631    0.0000 P   0  0  0  0  0  0  0  0  0  0  0  0
    4.4526   -0.1770    0.0000 O   0  0  0  0  0  0  0  0  0  0  0  0
   -0.7549   -1.6371    0.0000 O   0  0  0  0  0  0  0  0  0  0  0  0
    0.5384   -2.3970    0.0000 O   0  0  0  0  0  0  0  0  0  0  0  0
    3.1364   -2.4169    0.0000 O   0  0  0  0  0  0  0  0  0  0  0  0
    6.4974   -0.7417    0.0000 O   0  0  0  0  0  0  0  0  0  0  0  0
    7.0621    1.3031    0.0000 O   0  0  0  0  0  0  0  0  0  0  0  0
    5.0173    1.8678    0.0000 O   0  0  0  0  0  0  0  0  0  0  0  0
    0.5614    0.6029    0.0000 N   0  0  0  0  0  0  0  0  0  0  0  0
   -4.6346    0.6426    0.0000 C   0  0  0  0  0  0  0  0  0  0  0  0
   -3.3414   -0.1173    0.0000 C   0  0  0  0  0  0  0  0  0  0  0  0
    1.8546   -0.1571    0.0000 C   0  0  0  0  0  0  0  0  0  0  0  0
   -5.9394   -0.0974    0.0000 C   0  0  0  0  0  0  0  0  0  0  0  0
   -2.0366    0.6228    0.0000 C   0  0  0  0  0  0  0  0  0  0  0  0
    3.1594    0.5830    0.0000 C   0  0  0  0  0  0  0  0  0  0  0  0
   -7.2326    0.6625    0.0000 C   0  0  0  0  0  0  0  0  0  0  0  0
   -0.7434   -0.1372    0.0000 C   0  0  0  0  0  0  0  0  0  0  0  0
    3.1708    2.0829    0.0000 C   0  0  0  0  0  0  0  0  0  0  0  0
    1.8431   -1.6570    0.0000 C   0  0  0  0  0  0  0  0  0  0  0  0
   -8.5374   -0.0775    0.0000 C   0  0  0  0  0  0  0  0  0  0  0  0
  1 21  1  0
  2  3  1  0
  2  7  1  0
  2  8  1  0
  2  9  2  0
  3 16  1  0
  4 18  2  0
  5 20  1  0
  6 20  2  0
 10 13  1  0
 10 18  1  0
 11 12  1  0
 11 14  1  0
 12 15  1  0
 13 16  1  0
 13 20  1  0
 14 17  1  0
 15 18  1  0
 16 19  1  0
 17 21  1  0
M  END
>  <PUBCHEM_COMPOUND_CID>  (1) 
350

>  <PUBCHEM_COMPOUND_CANONICALIZED>  (1) 
1

>  <PUBCHEM_CACTVS_COMPLEXITY>  (1) 
387

>  <PUBCHEM_CACTVS_HBOND_ACCEPTOR>  (1) 
8

>  <PUBCHEM_CACTVS_HBOND_DONOR>  (1) 
5

>  <PUBCHEM_CACTVS_ROTATABLE_BOND>  (1) 
11

>  <PUBCHEM_CACTVS_SUBSKEYS>  (1) 
AAADceByOAJAAAAAAAAAAAAAAAAAAAAAAAAAAAAAAAAAAAAAAAAAHgQQCCAACDzlwAaCCALAAxQIQAGQGIAAAAAAAAAAAIGIAAACABYAgCAEQAAFNgCQAAEYiACAAAAAAAAAAAAAAAAAAAAAAAAAAAAAAA==

>  <PUBCHEM_IUPAC_OPENEYE_NAME>  (1) 
3-phosphonooxy-2-(7-sulfanylheptanoylamino)butanoic acid

>  <PUBCHEM_IUPAC_CAS_NAME>  (1) 
2-[(7-mercapto-1-oxoheptyl)amino]-3-phosphonooxybutanoic acid

>  <PUBCHEM_IUPAC_NAME_MARKUP>  (1) 
3-phosphonooxy-2-(7-sulfanylheptanoylamino)butanoic acid

>  <PUBCHEM_IUPAC_NAME>  (1) 
3-phosphonooxy-2-(7-sulfanylheptanoylamino)butanoic acid

>  <PUBCHEM_IUPAC_SYSTEMATIC_NAME>  (1) 
3-phosphonooxy-2-(7-sulfanylheptanoylamino)butanoic acid

>  <PUBCHEM_IUPAC_TRADITIONAL_NAME>  (1) 
2-(7-mercaptoheptanoylamino)-3-phosphonooxy-butyric acid

>  <PUBCHEM_IUPAC_INCHI>  (1) 
InChI=1S/C11H22NO7PS/c1-8(19-20(16,17)18)10(11(14)15)12-9(13)6-4-2-3-5-7-21/h8,10,21H,2-7H2,1H3,(H,12,13)(H,14,15)(H2,16,17,18)

>  <PUBCHEM_IUPAC_INCHIKEY>  (1) 
JBJSVEVEEGOEBZ-UHFFFAOYSA-N

>  <PUBCHEM_XLOGP3_AA>  (1) 
-0.3

>  <PUBCHEM_EXACT_MASS>  (1) 
343.08546

>  <PUBCHEM_MOLECULAR_FORMULA>  (1) 
C11H22NO7PS

>  <PUBCHEM_MOLECULAR_WEIGHT>  (1) 
343.34

>  <PUBCHEM_OPENEYE_CAN_SMILES>  (1) 
CC(C(C(=O)O)NC(=O)CCCCCCS)OP(=O)(O)O

>  <PUBCHEM_OPENEYE_ISO_SMILES>  (1) 
CC(C(C(=O)O)NC(=O)CCCCCCS)OP(=O)(O)O

>  <PUBCHEM_CACTVS_TPSA>  (1) 
134

>  <PUBCHEM_MONOISOTOPIC_WEIGHT>  (1) 
343.08546

>  <PUBCHEM_TOTAL_CHARGE>  (1) 
0

>  <PUBCHEM_HEAVY_ATOM_COUNT>  (1) 
21

>  <PUBCHEM_ATOM_DEF_STEREO_COUNT>  (1) 
0

>  <PUBCHEM_ATOM_UDEF_STEREO_COUNT>  (1) 
2

>  <PUBCHEM_BOND_DEF_STEREO_COUNT>  (1) 
0

>  <PUBCHEM_BOND_UDEF_STEREO_COUNT>  (1) 
0

>  <PUBCHEM_ISOTOPIC_ATOM_COUNT>  (1) 
0

>  <PUBCHEM_COMPONENT_COUNT>  (1) 
1

>  <PUBCHEM_CACTVS_TAUTO_COUNT>  (1) 
-1

>  <PUBCHEM_COORDINATE_TYPE>  (1) 
1
5
255

>  <PUBCHEM_BONDANNOTATIONS>  (1) 
13  20  3
16  19  3

$$$$
