356
     RDKit          2D

  8  7  0  0  0  0  0  0  0  0999 V2000
   -0.6388    0.3930    0.0000 C   0  0  0  0  0  0  0  0  0  0  0  0
    0.6388   -0.3930    0.0000 C   0  0  0  0  0  0  0  0  0  0  0  0
   -1.9583   -0.3205    0.0000 C   0  0  0  0  0  0  0  0  0  0  0  0
    1.9583    0.3205    0.0000 C   0  0  0  0  0  0  0  0  0  0  0  0
   -3.2359    0.4655    0.0000 C   0  0  0  0  0  0  0  0  0  0  0  0
    3.2359   -0.4655    0.0000 C   0  0  0  0  0  0  0  0  0  0  0  0
   -4.5553   -0.2480    0.0000 C   0  0  0  0  0  0  0  0  0  0  0  0
    4.5553    0.2480    0.0000 C   0  0  0  0  0  0  0  0  0  0  0  0
  1  2  1  0
  1  3  1  0
  2  4  1  0
  3  5  1  0
  4  6  1  0
  5  7  1  0
  6  8  1  0
M  END
>  <PUBCHEM_COMPOUND_CID>  (1) 
356

>  <PUBCHEM_COMPOUND_CANONICALIZED>  (1) 
1

>  <PUBCHEM_CACTVS_COMPLEXITY>  (1) 
25

>  <PUBCHEM_CACTVS_HBOND_ACCEPTOR>  (1) 
0

>  <PUBCHEM_CACTVS_HBOND_DONOR>  (1) 
0

>  <PUBCHEM_CACTVS_ROTATABLE_BOND>  (1) 
5

>  <PUBCHEM_CACTVS_SUBSKEYS>  (1) 
AAADceBwAAAAAAAAAAAAAAAAAAAAAAAAAAAAAAAAAAAAAAAAAAAAGAAAAAAACACAAAACAAAAAAAAAAAAAAAAAAAAAAAAAAAAAAAAAAIAAAAAAAAAAAAAAAEAgIAAAAAAAAAAAAAAAAAAAAAAAAAAAAAAAA==

>  <PUBCHEM_IUPAC_OPENEYE_NAME>  (1) 
octane

>  <PUBCHEM_IUPAC_CAS_NAME>  (1) 
octane

>  <PUBCHEM_IUPAC_NAME_MARKUP>  (1) 
octane

>  <PUBCHEM_IUPAC_NAME>  (1) 
octane

>  <PUBCHEM_IUPAC_SYSTEMATIC_NAME>  (1) 
octane

>  <PUBCHEM_IUPAC_TRADITIONAL_NAME>  (1) 
n-octane

>  <PUBCHEM_IUPAC_INCHI>  (1) 
InChI=1S/C8H18/c1-3-5-7-8-6-4-2/h3-8H2,1-2H3

>  <PUBCHEM_IUPAC_INCHIKEY>  (1) 
TVMXDCGIABBOFY-UHFFFAOYSA-N

>  <PUBCHEM_XLOGP3>  (1) 
3.9

>  <PUBCHEM_EXACT_MASS>  (1) 
114.140851

>  <PUBCHEM_MOLECULAR_FORMULA>  (1) 
C8H18

>  <PUBCHEM_MOLECULAR_WEIGHT>  (1) 
114.23

>  <PUBCHEM_OPENEYE_CAN_SMILES>  (1) 
CCCCCCCC

>  <PUBCHEM_OPENEYE_ISO_SMILES>  (1) 
CCCCCCCC

>  <PUBCHEM_CACTVS_TPSA>  (1) 
0

>  <PUBCHEM_MONOISOTOPIC_WEIGHT>  (1) 
114.140851

>  <PUBCHEM_TOTAL_CHARGE>  (1) 
0

>  <PUBCHEM_HEAVY_ATOM_COUNT>  (1) 
8

>  <PUBCHEM_ATOM_DEF_STEREO_COUNT>  (1) 
0

>  <PUBCHEM_ATOM_UDEF_STEREO_COUNT>  (1) 
0

>  <PUBCHEM_BOND_DEF_STEREO_COUNT>  (1) 
0

>  <PUBCHEM_BOND_UDEF_STEREO_COUNT>  (1) 
0

>  <PUBCHEM_ISOTOPIC_ATOM_COUNT>  (1) 
0

>  <PUBCHEM_COMPONENT_COUNT>  (1) 
1

>  <PUBCHEM_CACTVS_TAUTO_COUNT>  (1) 
-1

>  <PUBCHEM_COORDINATE_TYPE>  (1) 
1
5
255

$$$$
