358
     RDKit          2D

 10  9  0  0  1  0  0  0  0  0999 V2000
   -0.0000    1.3500    0.0000 O   0  0  0  0  0  0  0  0  0  0  0  0
    3.8971   -0.9000    0.0000 O   0  0  0  0  0  0  0  0  0  0  0  0
    2.5981    1.3500    0.0000 O   0  0  0  0  0  0  0  0  0  0  0  0
   -2.5981    1.3500    0.0000 N   0  0  0  0  0  0  0  0  0  0  0  0
   -2.5981   -0.1500    0.0000 C   0  0  0  0  0  0  0  0  0  0  0  0
   -1.2990   -0.9000    0.0000 C   0  0  0  0  0  0  0  0  0  0  0  0
    0.0000   -0.1500    0.0000 C   0  0  0  0  0  0  0  0  0  0  0  0
   -3.8971   -0.9000    0.0000 C   0  0  0  0  0  0  0  0  0  0  0  0
    1.2990   -0.9000    0.0000 C   0  0  0  0  0  0  0  0  0  0  0  0
    2.5981   -0.1500    0.0000 C   0  0  0  0  0  0  0  0  0  0  0  0
  1  7  2  0
  2 10  1  0
  3 10  2  0
  4  5  1  0
  5  6  1  0
  5  8  1  0
  6  7  1  0
  7  9  1  0
  9 10  1  0
M  END
>  <PUBCHEM_COMPOUND_CID>  (1) 
358

>  <PUBCHEM_COMPOUND_CANONICALIZED>  (1) 
1

>  <PUBCHEM_CACTVS_COMPLEXITY>  (1) 
144

>  <PUBCHEM_CACTVS_HBOND_ACCEPTOR>  (1) 
4

>  <PUBCHEM_CACTVS_HBOND_DONOR>  (1) 
2

>  <PUBCHEM_CACTVS_ROTATABLE_BOND>  (1) 
4

>  <PUBCHEM_CACTVS_SUBSKEYS>  (1) 
AAADccBiMAAAAAAAAAAAAAAAAAAAAAAAAAAAAAAAAAAAAAAAAAAAHgAQCAAACCzBgAQCCABAAgAIAICQCAAAAAAAAAAAAIEAAAAAAB4IgAAAQAAEMAAAAAGYWQEQAAAAAAAAAAAAAAAAAAAAAAAAAAAAAA==

>  <PUBCHEM_IUPAC_OPENEYE_NAME>  (1) 
5-amino-3-oxo-hexanoic acid

>  <PUBCHEM_IUPAC_CAS_NAME>  (1) 
5-amino-3-oxohexanoic acid

>  <PUBCHEM_IUPAC_NAME_MARKUP>  (1) 
5-amino-3-oxohexanoic acid

>  <PUBCHEM_IUPAC_NAME>  (1) 
5-amino-3-oxohexanoic acid

>  <PUBCHEM_IUPAC_SYSTEMATIC_NAME>  (1) 
5-azanyl-3-oxidanylidene-hexanoic acid

>  <PUBCHEM_IUPAC_TRADITIONAL_NAME>  (1) 
5-amino-3-keto-hexanoic acid

>  <PUBCHEM_IUPAC_INCHI>  (1) 
InChI=1S/C6H11NO3/c1-4(7)2-5(8)3-6(9)10/h4H,2-3,7H2,1H3,(H,9,10)

>  <PUBCHEM_IUPAC_INCHIKEY>  (1) 
FAASBXNEOGMQHS-UHFFFAOYSA-N

>  <PUBCHEM_XLOGP3_AA>  (1) 
-3.2

>  <PUBCHEM_EXACT_MASS>  (1) 
145.073893

>  <PUBCHEM_MOLECULAR_FORMULA>  (1) 
C6H11NO3

>  <PUBCHEM_MOLECULAR_WEIGHT>  (1) 
145.16

>  <PUBCHEM_OPENEYE_CAN_SMILES>  (1) 
CC(CC(=O)CC(=O)O)N

>  <PUBCHEM_OPENEYE_ISO_SMILES>  (1) 
CC(CC(=O)CC(=O)O)N

>  <PUBCHEM_CACTVS_TPSA>  (1) 
80.4

>  <PUBCHEM_MONOISOTOPIC_WEIGHT>  (1) 
145.073893

>  <PUBCHEM_TOTAL_CHARGE>  (1) 
0

>  <PUBCHEM_HEAVY_ATOM_COUNT>  (1) 
10

>  <PUBCHEM_ATOM_DEF_STEREO_COUNT>  (1) 
0

>  <PUBCHEM_ATOM_UDEF_STEREO_COUNT>  (1) 
1

>  <PUBCHEM_BOND_DEF_STEREO_COUNT>  (1) 
0

>  <PUBCHEM_BOND_UDEF_STEREO_COUNT>  (1) 
0

>  <PUBCHEM_ISOTOPIC_ATOM_COUNT>  (1) 
0

>  <PUBCHEM_COMPONENT_COUNT>  (1) 
1

>  <PUBCHEM_CACTVS_TAUTO_COUNT>  (1) 
-1

>  <PUBCHEM_COORDINATE_TYPE>  (1) 
1
5
255

>  <PUBCHEM_BONDANNOTATIONS>  (1) 
5  4  3

$$$$
