359
     RDKit          2D

  9  9  0  0  0  0  0  0  0  0999 V2000
    3.0000    0.0000    0.0000 O   0  0  0  0  0  0  0  0  0  0  0  0
   -1.5000   -2.5981    0.0000 O   0  0  0  0  0  0  0  0  0  0  0  0
   -1.5000    2.5981    0.0000 O   0  0  0  0  0  0  0  0  0  0  0  0
    1.5000   -0.0000    0.0000 C   0  0  0  0  0  0  0  0  0  0  0  0
   -0.7500   -1.2990    0.0000 C   0  0  0  0  0  0  0  0  0  0  0  0
   -0.7500    1.2990    0.0000 C   0  0  0  0  0  0  0  0  0  0  0  0
    0.7500   -1.2990    0.0000 C   0  0  0  0  0  0  0  0  0  0  0  0
    0.7500    1.2990    0.0000 C   0  0  0  0  0  0  0  0  0  0  0  0
   -1.5000    0.0000    0.0000 C   0  0  0  0  0  0  0  0  0  0  0  0
  1  4  1  0
  2  5  1  0
  3  6  1  0
  4  7  2  0
  4  8  1  0
  5  7  1  0
  5  9  2  0
  6  8  2  0
  6  9  1  0
M  END
>  <PUBCHEM_COMPOUND_CID>  (1) 
359

>  <PUBCHEM_COMPOUND_CANONICALIZED>  (1) 
1

>  <PUBCHEM_CACTVS_COMPLEXITY>  (1) 
63.3

>  <PUBCHEM_CACTVS_HBOND_ACCEPTOR>  (1) 
3

>  <PUBCHEM_CACTVS_HBOND_DONOR>  (1) 
3

>  <PUBCHEM_CACTVS_ROTATABLE_BOND>  (1) 
0

>  <PUBCHEM_CACTVS_SUBSKEYS>  (1) 
AAADcYBgMAAAAAAAAAAAAAAAAAAAAAAAAAAwAAAAAAAAAAABAAAAGgAACAAACASAkAAwBoAAAgCAACBCAAACAAAgIAAAiAAGCIgIJyKCERKAcAAlwBUImAeAYAQAAAAACAAAAAAAAAAQAAAAAAAAAAAAAA==

>  <PUBCHEM_IUPAC_OPENEYE_NAME>  (1) 
benzene-1,3,5-triol

>  <PUBCHEM_IUPAC_CAS_NAME>  (1) 
benzene-1,3,5-triol

>  <PUBCHEM_IUPAC_NAME_MARKUP>  (1) 
benzene-1,3,5-triol

>  <PUBCHEM_IUPAC_NAME>  (1) 
benzene-1,3,5-triol

>  <PUBCHEM_IUPAC_SYSTEMATIC_NAME>  (1) 
benzene-1,3,5-triol

>  <PUBCHEM_IUPAC_TRADITIONAL_NAME>  (1) 
phloroglucinol

>  <PUBCHEM_IUPAC_INCHI>  (1) 
InChI=1S/C6H6O3/c7-4-1-5(8)3-6(9)2-4/h1-3,7-9H

>  <PUBCHEM_IUPAC_INCHIKEY>  (1) 
QCDYQQDYXPDABM-UHFFFAOYSA-N

>  <PUBCHEM_XLOGP3>  (1) 
0.2

>  <PUBCHEM_EXACT_MASS>  (1) 
126.031694

>  <PUBCHEM_MOLECULAR_FORMULA>  (1) 
C6H6O3

>  <PUBCHEM_MOLECULAR_WEIGHT>  (1) 
126.11

>  <PUBCHEM_OPENEYE_CAN_SMILES>  (1) 
C1=C(C=C(C=C1O)O)O

>  <PUBCHEM_OPENEYE_ISO_SMILES>  (1) 
C1=C(C=C(C=C1O)O)O

>  <PUBCHEM_CACTVS_TPSA>  (1) 
60.7

>  <PUBCHEM_MONOISOTOPIC_WEIGHT>  (1) 
126.031694

>  <PUBCHEM_TOTAL_CHARGE>  (1) 
0

>  <PUBCHEM_HEAVY_ATOM_COUNT>  (1) 
9

>  <PUBCHEM_ATOM_DEF_STEREO_COUNT>  (1) 
0

>  <PUBCHEM_ATOM_UDEF_STEREO_COUNT>  (1) 
0

>  <PUBCHEM_BOND_DEF_STEREO_COUNT>  (1) 
0

>  <PUBCHEM_BOND_UDEF_STEREO_COUNT>  (1) 
0

>  <PUBCHEM_ISOTOPIC_ATOM_COUNT>  (1) 
0

>  <PUBCHEM_COMPONENT_COUNT>  (1) 
1

>  <PUBCHEM_CACTVS_TAUTO_COUNT>  (1) 
-1

>  <PUBCHEM_COORDINATE_TYPE>  (1) 
1
5
255

>  <PUBCHEM_BONDANNOTATIONS>  (1) 
4  7  8
4  8  8
5  7  8
5  9  8
6  8  8
6  9  8

$$$$
