36
     RDKit          2D

 12 11  0  0  1  0  0  0  0  0999 V2000
    0.6735   -2.3384    0.0000 O   0  0  0  0  0  0  0  0  0  0  0  0
    0.8365    2.1586    0.0000 O   0  0  0  0  0  0  0  0  0  0  0  0
   -1.7598    2.2527    0.0000 O   0  0  0  0  0  0  0  0  0  0  0  0
    3.3242   -0.9335    0.0000 O   0  0  0  0  0  0  0  0  0  0  0  0
    2.1075    1.3620    0.0000 O   0  0  0  0  0  0  0  0  0  0  0  0
   -0.5432   -0.0428    0.0000 C   0  0  0  0  0  0  0  0  0  0  0  0
   -1.8685   -0.7453    0.0000 C   0  0  0  0  0  0  0  0  0  0  0  0
    0.7278   -0.8394    0.0000 C   0  0  0  0  0  0  0  0  0  0  0  0
   -3.1395    0.0513    0.0000 C   0  0  0  0  0  0  0  0  0  0  0  0
   -1.9229   -2.2443    0.0000 C   0  0  0  0  0  0  0  0  0  0  0  0
   -0.4888    1.4562    0.0000 C   0  0  0  0  0  0  0  0  0  0  0  0
    2.0532   -0.1370    0.0000 C   0  0  0  0  0  0  0  0  0  0  0  0
  1  8  1  0
  2 11  1  0
  3 11  2  0
  4 12  1  0
  5 12  2  0
  6  7  1  0
  6  8  1  0
  6 11  1  0
  7  9  1  0
  7 10  1  0
  8 12  1  0
M  END
>  <PUBCHEM_COMPOUND_CID>  (1) 
36

>  <PUBCHEM_COMPOUND_CANONICALIZED>  (1) 
1

>  <PUBCHEM_CACTVS_COMPLEXITY>  (1) 
186

>  <PUBCHEM_CACTVS_HBOND_ACCEPTOR>  (1) 
5

>  <PUBCHEM_CACTVS_HBOND_DONOR>  (1) 
3

>  <PUBCHEM_CACTVS_ROTATABLE_BOND>  (1) 
4

>  <PUBCHEM_CACTVS_SUBSKEYS>  (1) 
AAADccBgOAAAAAAAAAAAAAAAAAAAAAAAAAAAAAAAAAAAAAAAAAAAGgAACAAADRSggAICCAAAAgAIAACQCAIAAAAAAAAAAAFAAAABEBYAAAAAQAAFIAABAADLAAAOgAAAAAAAAAAAAAAAAAAAAAAAAAAAAA==

>  <PUBCHEM_IUPAC_OPENEYE_NAME>  (1) 
2-hydroxy-3-isopropyl-butanedioic acid

>  <PUBCHEM_IUPAC_CAS_NAME>  (1) 
2-hydroxy-3-propan-2-ylbutanedioic acid

>  <PUBCHEM_IUPAC_NAME_MARKUP>  (1) 
2-hydroxy-3-propan-2-ylbutanedioic acid

>  <PUBCHEM_IUPAC_NAME>  (1) 
2-hydroxy-3-propan-2-ylbutanedioic acid

>  <PUBCHEM_IUPAC_SYSTEMATIC_NAME>  (1) 
2-oxidanyl-3-propan-2-yl-butanedioic acid

>  <PUBCHEM_IUPAC_TRADITIONAL_NAME>  (1) 
2-hydroxy-3-isopropyl-succinic acid

>  <PUBCHEM_IUPAC_INCHI>  (1) 
InChI=1S/C7H12O5/c1-3(2)4(6(9)10)5(8)7(11)12/h3-5,8H,1-2H3,(H,9,10)(H,11,12)

>  <PUBCHEM_IUPAC_INCHIKEY>  (1) 
RNQHMTFBUSSBJQ-UHFFFAOYSA-N

>  <PUBCHEM_XLOGP3_AA>  (1) 
0

>  <PUBCHEM_EXACT_MASS>  (1) 
176.068473

>  <PUBCHEM_MOLECULAR_FORMULA>  (1) 
C7H12O5

>  <PUBCHEM_MOLECULAR_WEIGHT>  (1) 
176.17

>  <PUBCHEM_OPENEYE_CAN_SMILES>  (1) 
CC(C)C(C(C(=O)O)O)C(=O)O

>  <PUBCHEM_OPENEYE_ISO_SMILES>  (1) 
CC(C)C(C(C(=O)O)O)C(=O)O

>  <PUBCHEM_CACTVS_TPSA>  (1) 
94.8

>  <PUBCHEM_MONOISOTOPIC_WEIGHT>  (1) 
176.068473

>  <PUBCHEM_TOTAL_CHARGE>  (1) 
0

>  <PUBCHEM_HEAVY_ATOM_COUNT>  (1) 
12

>  <PUBCHEM_ATOM_DEF_STEREO_COUNT>  (1) 
0

>  <PUBCHEM_ATOM_UDEF_STEREO_COUNT>  (1) 
2

>  <PUBCHEM_BOND_DEF_STEREO_COUNT>  (1) 
0

>  <PUBCHEM_BOND_UDEF_STEREO_COUNT>  (1) 
0

>  <PUBCHEM_ISOTOPIC_ATOM_COUNT>  (1) 
0

>  <PUBCHEM_COMPONENT_COUNT>  (1) 
1

>  <PUBCHEM_CACTVS_TAUTO_COUNT>  (1) 
-1

>  <PUBCHEM_COORDINATE_TYPE>  (1) 
1
5
255

>  <PUBCHEM_BONDANNOTATIONS>  (1) 
8  1  3
6  7  3

$$$$
