364
     RDKit          2D

  7  6  0  0  1  0  0  0  0  0999 V2000
   -2.2837   -0.8417    0.0000 O   0  0  0  0  0  0  0  0  0  0  0  0
   -1.5086    1.6381    0.0000 O   0  0  0  0  0  0  0  0  0  0  0  0
    0.5797   -1.7367    0.0000 N   0  0  0  0  0  0  0  0  0  0  0  0
    2.7865    0.2956    0.0000 N   0  0  0  0  0  0  0  0  0  0  0  0
    0.2514   -0.2730    0.0000 C   0  0  0  0  0  0  0  0  0  0  0  0
    1.3548    0.7431    0.0000 C   0  0  0  0  0  0  0  0  0  0  0  0
   -1.1803    0.1745    0.0000 C   0  0  0  0  0  0  0  0  0  0  0  0
  1  7  1  0
  2  7  2  0
  3  5  1  0
  4  6  1  0
  5  6  1  0
  5  7  1  0
M  END
>  <PUBCHEM_COMPOUND_CID>  (1) 
364

>  <PUBCHEM_COMPOUND_CANONICALIZED>  (1) 
1

>  <PUBCHEM_CACTVS_COMPLEXITY>  (1) 
73.3

>  <PUBCHEM_CACTVS_HBOND_ACCEPTOR>  (1) 
4

>  <PUBCHEM_CACTVS_HBOND_DONOR>  (1) 
3

>  <PUBCHEM_CACTVS_ROTATABLE_BOND>  (1) 
2

>  <PUBCHEM_CACTVS_SUBSKEYS>  (1) 
AAADccBDMAAAAAAAAAAAAAAAAAAAAAAAAAAAAAAAAAAAAAAAAAAAHgAQCAAACCjBgAQACABAAgAIAACQCAAAAAAAAAAAAIGAAAACQAgAAAAAQAACEAAAAAAAAAAAAAAAAAAAAAAAAAAAAAAAAAAAAAAAAA==

>  <PUBCHEM_IUPAC_OPENEYE_NAME>  (1) 
2,3-diaminopropanoic acid

>  <PUBCHEM_IUPAC_CAS_NAME>  (1) 
2,3-diaminopropanoic acid

>  <PUBCHEM_IUPAC_NAME_MARKUP>  (1) 
2,3-diaminopropanoic acid

>  <PUBCHEM_IUPAC_NAME>  (1) 
2,3-diaminopropanoic acid

>  <PUBCHEM_IUPAC_SYSTEMATIC_NAME>  (1) 
2,3-bis(azanyl)propanoic acid

>  <PUBCHEM_IUPAC_TRADITIONAL_NAME>  (1) 
2,3-diaminopropionic acid

>  <PUBCHEM_IUPAC_INCHI>  (1) 
InChI=1S/C3H8N2O2/c4-1-2(5)3(6)7/h2H,1,4-5H2,(H,6,7)

>  <PUBCHEM_IUPAC_INCHIKEY>  (1) 
PECYZEOJVXMISF-UHFFFAOYSA-N

>  <PUBCHEM_XLOGP3_AA>  (1) 
-4.3

>  <PUBCHEM_EXACT_MASS>  (1) 
104.058578

>  <PUBCHEM_MOLECULAR_FORMULA>  (1) 
C3H8N2O2

>  <PUBCHEM_MOLECULAR_WEIGHT>  (1) 
104.11

>  <PUBCHEM_OPENEYE_CAN_SMILES>  (1) 
C(C(C(=O)O)N)N

>  <PUBCHEM_OPENEYE_ISO_SMILES>  (1) 
C(C(C(=O)O)N)N

>  <PUBCHEM_CACTVS_TPSA>  (1) 
89.3

>  <PUBCHEM_MONOISOTOPIC_WEIGHT>  (1) 
104.058578

>  <PUBCHEM_TOTAL_CHARGE>  (1) 
0

>  <PUBCHEM_HEAVY_ATOM_COUNT>  (1) 
7

>  <PUBCHEM_ATOM_DEF_STEREO_COUNT>  (1) 
0

>  <PUBCHEM_ATOM_UDEF_STEREO_COUNT>  (1) 
1

>  <PUBCHEM_BOND_DEF_STEREO_COUNT>  (1) 
0

>  <PUBCHEM_BOND_UDEF_STEREO_COUNT>  (1) 
0

>  <PUBCHEM_ISOTOPIC_ATOM_COUNT>  (1) 
0

>  <PUBCHEM_COMPONENT_COUNT>  (1) 
1

>  <PUBCHEM_CACTVS_TAUTO_COUNT>  (1) 
-1

>  <PUBCHEM_COORDINATE_TYPE>  (1) 
1
5
255

>  <PUBCHEM_BONDANNOTATIONS>  (1) 
5  3  3

$$$$
