368
     RDKit          2D

 11 10  0  0  0  0  0  0  0  0999 V2000
    0.0000   -0.4091    0.0000 N   0  0  0  0  0  0  0  0  0  0  0  0
    6.4952    0.3409    0.0000 N   0  0  0  0  0  0  0  0  0  0  0  0
   -6.4952    0.3409    0.0000 N   0  0  0  0  0  0  0  0  0  0  0  0
    2.5981   -0.4091    0.0000 C   0  0  0  0  0  0  0  0  0  0  0  0
   -2.5981   -0.4091    0.0000 C   0  0  0  0  0  0  0  0  0  0  0  0
    1.2990    0.3409    0.0000 C   0  0  0  0  0  0  0  0  0  0  0  0
   -1.2990    0.3409    0.0000 C   0  0  0  0  0  0  0  0  0  0  0  0
    3.8971    0.3409    0.0000 C   0  0  0  0  0  0  0  0  0  0  0  0
   -3.8971    0.3409    0.0000 C   0  0  0  0  0  0  0  0  0  0  0  0
    5.1962   -0.4091    0.0000 C   0  0  0  0  0  0  0  0  0  0  0  0
   -5.1962   -0.4091    0.0000 C   0  0  0  0  0  0  0  0  0  0  0  0
  1  6  1  0
  1  7  1  0
  2 10  1  0
  3 11  1  0
  4  6  1  0
  4  8  1  0
  5  7  1  0
  5  9  1  0
  8 10  1  0
  9 11  1  0
M  END
>  <PUBCHEM_COMPOUND_CID>  (1) 
368

>  <PUBCHEM_COMPOUND_CANONICALIZED>  (1) 
1

>  <PUBCHEM_CACTVS_COMPLEXITY>  (1) 
58.4

>  <PUBCHEM_CACTVS_HBOND_ACCEPTOR>  (1) 
3

>  <PUBCHEM_CACTVS_HBOND_DONOR>  (1) 
3

>  <PUBCHEM_CACTVS_ROTATABLE_BOND>  (1) 
8

>  <PUBCHEM_CACTVS_SUBSKEYS>  (1) 
AAADceBzAAAAAAAAAAAAAAAAAAAAAAAAAAAAAAAAAAAAAAAAAAAAHAAQAAAACADBAAQAAALAAAAAAAAAAAAAAAAAAAAAAIAIAAAAAAAAgAAEAAAAEACAAAAAAAAAAAAAAAAAAAAAAAAAAAAAAAAAAAAAAA==

>  <PUBCHEM_IUPAC_OPENEYE_NAME>  (1) 
N'-(4-aminobutyl)butane-1,4-diamine

>  <PUBCHEM_IUPAC_CAS_NAME>  (1) 
N'-(4-aminobutyl)butane-1,4-diamine

>  <PUBCHEM_IUPAC_NAME_MARKUP>  (1) 
<I>N</I>&apos;-(4-aminobutyl)butane-1,4-diamine

>  <PUBCHEM_IUPAC_NAME>  (1) 
N'-(4-aminobutyl)butane-1,4-diamine

>  <PUBCHEM_IUPAC_SYSTEMATIC_NAME>  (1) 
N'-(4-azanylbutyl)butane-1,4-diamine

>  <PUBCHEM_IUPAC_TRADITIONAL_NAME>  (1) 
bis(4-aminobutyl)amine

>  <PUBCHEM_IUPAC_INCHI>  (1) 
InChI=1S/C8H21N3/c9-5-1-3-7-11-8-4-2-6-10/h11H,1-10H2

>  <PUBCHEM_IUPAC_INCHIKEY>  (1) 
UODZHRGDSPLRMD-UHFFFAOYSA-N

>  <PUBCHEM_XLOGP3_AA>  (1) 
-0.7

>  <PUBCHEM_EXACT_MASS>  (1) 
159.173548

>  <PUBCHEM_MOLECULAR_FORMULA>  (1) 
C8H21N3

>  <PUBCHEM_MOLECULAR_WEIGHT>  (1) 
159.27

>  <PUBCHEM_OPENEYE_CAN_SMILES>  (1) 
C(CCNCCCCN)CN

>  <PUBCHEM_OPENEYE_ISO_SMILES>  (1) 
C(CCNCCCCN)CN

>  <PUBCHEM_CACTVS_TPSA>  (1) 
64.1

>  <PUBCHEM_MONOISOTOPIC_WEIGHT>  (1) 
159.173548

>  <PUBCHEM_TOTAL_CHARGE>  (1) 
0

>  <PUBCHEM_HEAVY_ATOM_COUNT>  (1) 
11

>  <PUBCHEM_ATOM_DEF_STEREO_COUNT>  (1) 
0

>  <PUBCHEM_ATOM_UDEF_STEREO_COUNT>  (1) 
0

>  <PUBCHEM_BOND_DEF_STEREO_COUNT>  (1) 
0

>  <PUBCHEM_BOND_UDEF_STEREO_COUNT>  (1) 
0

>  <PUBCHEM_ISOTOPIC_ATOM_COUNT>  (1) 
0

>  <PUBCHEM_COMPONENT_COUNT>  (1) 
1

>  <PUBCHEM_CACTVS_TAUTO_COUNT>  (1) 
-1

>  <PUBCHEM_COORDINATE_TYPE>  (1) 
1
5
255

$$$$
