37
     RDKit          2D

 12 11  0  0  1  0  0  0  0  0999 V2000
   -0.8162   -1.8972    0.0000 O   0  0  0  0  0  0  0  0  0  0  0  0
   -2.2138    1.8172    0.0000 O   0  0  0  0  0  0  0  0  0  0  0  0
   -4.7714    0.2490    0.0000 O   0  0  0  0  0  0  0  0  0  0  0  0
    1.7810   -1.8286    0.0000 O   0  0  0  0  0  0  0  0  0  0  0  0
    4.3385   -0.2605    0.0000 O   0  0  0  0  0  0  0  0  0  0  0  0
    2.9805    1.9544    0.0000 O   0  0  0  0  0  0  0  0  0  0  0  0
   -0.8558   -0.3977    0.0000 C   0  0  0  0  0  0  0  0  0  0  0  0
   -2.1742    0.3177    0.0000 C   0  0  0  0  0  0  0  0  0  0  0  0
    0.4230    0.3863    0.0000 C   0  0  0  0  0  0  0  0  0  0  0  0
   -3.4530   -0.4664    0.0000 C   0  0  0  0  0  0  0  0  0  0  0  0
    1.7414   -0.3291    0.0000 C   0  0  0  0  0  0  0  0  0  0  0  0
    3.0201    0.4549    0.0000 C   0  0  0  0  0  0  0  0  0  0  0  0
  1  7  1  0
  2  8  1  0
  3 10  1  0
  4 11  2  0
  5 12  1  0
  6 12  2  0
  7  8  1  0
  7  9  1  0
  8 10  1  0
  9 11  1  0
 11 12  1  0
M  END
>  <PUBCHEM_COMPOUND_CID>  (1) 
37

>  <PUBCHEM_COMPOUND_CANONICALIZED>  (1) 
1

>  <PUBCHEM_CACTVS_COMPLEXITY>  (1) 
177

>  <PUBCHEM_CACTVS_HBOND_ACCEPTOR>  (1) 
6

>  <PUBCHEM_CACTVS_HBOND_DONOR>  (1) 
4

>  <PUBCHEM_CACTVS_ROTATABLE_BOND>  (1) 
5

>  <PUBCHEM_CACTVS_SUBSKEYS>  (1) 
AAADccBgOAAAAAAAAAAAAAAAAAAAAAAAAAAAAAAAAAAAAAAAAAAAGgAACAAACBSggAIACAAAAgAIAICQCAIAAAAAAAAAAAFAAAABEBYAAAAAQAAFIAABAAHKbARAAAAAAAAAAAAAAAAAAAAAAAAAAAAAAA==

>  <PUBCHEM_IUPAC_OPENEYE_NAME>  (1) 
4,5,6-trihydroxy-2-oxo-hexanoic acid

>  <PUBCHEM_IUPAC_CAS_NAME>  (1) 
4,5,6-trihydroxy-2-oxohexanoic acid

>  <PUBCHEM_IUPAC_NAME_MARKUP>  (1) 
4,5,6-trihydroxy-2-oxohexanoic acid

>  <PUBCHEM_IUPAC_NAME>  (1) 
4,5,6-trihydroxy-2-oxohexanoic acid

>  <PUBCHEM_IUPAC_SYSTEMATIC_NAME>  (1) 
4,5,6-tris(oxidanyl)-2-oxidanylidene-hexanoic acid

>  <PUBCHEM_IUPAC_TRADITIONAL_NAME>  (1) 
4,5,6-trihydroxy-2-keto-hexanoic acid

>  <PUBCHEM_IUPAC_INCHI>  (1) 
InChI=1S/C6H10O6/c7-2-5(10)3(8)1-4(9)6(11)12/h3,5,7-8,10H,1-2H2,(H,11,12)

>  <PUBCHEM_IUPAC_INCHIKEY>  (1) 
WPAMZTWLKIDIOP-UHFFFAOYSA-N

>  <PUBCHEM_XLOGP3_AA>  (1) 
-2.3

>  <PUBCHEM_EXACT_MASS>  (1) 
178.047738

>  <PUBCHEM_MOLECULAR_FORMULA>  (1) 
C6H10O6

>  <PUBCHEM_MOLECULAR_WEIGHT>  (1) 
178.14

>  <PUBCHEM_OPENEYE_CAN_SMILES>  (1) 
C(C(C(CO)O)O)C(=O)C(=O)O

>  <PUBCHEM_OPENEYE_ISO_SMILES>  (1) 
C(C(C(CO)O)O)C(=O)C(=O)O

>  <PUBCHEM_CACTVS_TPSA>  (1) 
115

>  <PUBCHEM_MONOISOTOPIC_WEIGHT>  (1) 
178.047738

>  <PUBCHEM_TOTAL_CHARGE>  (1) 
0

>  <PUBCHEM_HEAVY_ATOM_COUNT>  (1) 
12

>  <PUBCHEM_ATOM_DEF_STEREO_COUNT>  (1) 
0

>  <PUBCHEM_ATOM_UDEF_STEREO_COUNT>  (1) 
2

>  <PUBCHEM_BOND_DEF_STEREO_COUNT>  (1) 
0

>  <PUBCHEM_BOND_UDEF_STEREO_COUNT>  (1) 
0

>  <PUBCHEM_ISOTOPIC_ATOM_COUNT>  (1) 
0

>  <PUBCHEM_COMPONENT_COUNT>  (1) 
1

>  <PUBCHEM_CACTVS_TAUTO_COUNT>  (1) 
-1

>  <PUBCHEM_COORDINATE_TYPE>  (1) 
1
5
255

>  <PUBCHEM_BONDANNOTATIONS>  (1) 
7  1  3
8  2  3

$$$$
