374
     RDKit          2D

 14 13  0  0  0  0  0  0  0  0999 V2000
    4.3581    1.6476    0.0000 O   0  0  0  0  0  0  0  0  0  0  0  0
   -0.3641   -2.0538    0.0000 O   0  0  0  0  0  0  0  0  0  0  0  0
    3.3887   -0.7628    0.0000 O   0  0  0  0  0  0  0  0  0  0  0  0
    2.2081   -1.6882    0.0000 O   0  0  0  0  0  0  0  0  0  0  0  0
   -1.7557   -1.4941    0.0000 O   0  0  0  0  0  0  0  0  0  0  0  0
   -4.5391   -0.3747    0.0000 O   0  0  0  0  0  0  0  0  0  0  0  0
   -3.5696    2.0357    0.0000 O   0  0  0  0  0  0  0  0  0  0  0  0
    1.7859    1.2820    0.0000 C   0  0  0  0  0  0  0  0  0  0  0  0
    0.6054    0.3566    0.0000 C   0  0  0  0  0  0  0  0  0  0  0  0
   -0.7863    0.9163    0.0000 C   0  0  0  0  0  0  0  0  0  0  0  0
    3.1776    0.7223    0.0000 C   0  0  0  0  0  0  0  0  0  0  0  0
    0.8165   -1.1285    0.0000 C   0  0  0  0  0  0  0  0  0  0  0  0
   -1.9669   -0.0091    0.0000 C   0  0  0  0  0  0  0  0  0  0  0  0
   -3.3585    0.5507    0.0000 C   0  0  0  0  0  0  0  0  0  0  0  0
  1 11  1  0
  2 12  1  0
  3 11  2  0
  4 12  2  0
  5 13  2  0
  6 14  1  0
  7 14  2  0
  8  9  1  0
  8 11  1  0
  9 10  2  3
  9 12  1  0
 10 13  1  0
 13 14  1  0
M  END
>  <PUBCHEM_COMPOUND_CID>  (1) 
374

>  <PUBCHEM_COMPOUND_CANONICALIZED>  (1) 
1

>  <PUBCHEM_CACTVS_COMPLEXITY>  (1) 
325

>  <PUBCHEM_CACTVS_HBOND_ACCEPTOR>  (1) 
7

>  <PUBCHEM_CACTVS_HBOND_DONOR>  (1) 
3

>  <PUBCHEM_CACTVS_ROTATABLE_BOND>  (1) 
5

>  <PUBCHEM_CACTVS_SUBSKEYS>  (1) 
AAADcYBgOAAAAAAAAAAAAAAAAAAAAAAAAAAAAAAAAAAAAAAAAAAAGgAACAAADASAgAAACAAAAgCIAqDSCAIAAAAgAAAACAFAAEgABBAAAQAAUAAEQAAIEYJDAAAAAAAAAAAAAAAAAAAAAAAAAAAAAAAAAA==

>  <PUBCHEM_IUPAC_OPENEYE_NAME>  (1) 
4-oxobut-2-ene-1,2,4-tricarboxylic acid

>  <PUBCHEM_IUPAC_CAS_NAME>  (1) 
4-oxo-2-butene-1,2,4-tricarboxylic acid

>  <PUBCHEM_IUPAC_NAME_MARKUP>  (1) 
4-oxobut-2-ene-1,2,4-tricarboxylic acid

>  <PUBCHEM_IUPAC_NAME>  (1) 
4-oxobut-2-ene-1,2,4-tricarboxylic acid

>  <PUBCHEM_IUPAC_SYSTEMATIC_NAME>  (1) 
4-oxidanylidenebut-2-ene-1,2,4-tricarboxylic acid

>  <PUBCHEM_IUPAC_TRADITIONAL_NAME>  (1) 
4-ketobut-2-ene-1,2,4-tricarboxylic acid

>  <PUBCHEM_IUPAC_INCHI>  (1) 
InChI=1S/C7H6O7/c8-4(7(13)14)1-3(6(11)12)2-5(9)10/h1H,2H2,(H,9,10)(H,11,12)(H,13,14)

>  <PUBCHEM_IUPAC_INCHIKEY>  (1) 
POTZSFVTPSBXLW-UHFFFAOYSA-N

>  <PUBCHEM_XLOGP3_AA>  (1) 
-1.1

>  <PUBCHEM_EXACT_MASS>  (1) 
202.011353

>  <PUBCHEM_MOLECULAR_FORMULA>  (1) 
C7H6O7

>  <PUBCHEM_MOLECULAR_WEIGHT>  (1) 
202.12

>  <PUBCHEM_OPENEYE_CAN_SMILES>  (1) 
C(C(=CC(=O)C(=O)O)C(=O)O)C(=O)O

>  <PUBCHEM_OPENEYE_ISO_SMILES>  (1) 
C(C(=CC(=O)C(=O)O)C(=O)O)C(=O)O

>  <PUBCHEM_CACTVS_TPSA>  (1) 
129

>  <PUBCHEM_MONOISOTOPIC_WEIGHT>  (1) 
202.011353

>  <PUBCHEM_TOTAL_CHARGE>  (1) 
0

>  <PUBCHEM_HEAVY_ATOM_COUNT>  (1) 
14

>  <PUBCHEM_ATOM_DEF_STEREO_COUNT>  (1) 
0

>  <PUBCHEM_ATOM_UDEF_STEREO_COUNT>  (1) 
0

>  <PUBCHEM_BOND_DEF_STEREO_COUNT>  (1) 
0

>  <PUBCHEM_BOND_UDEF_STEREO_COUNT>  (1) 
1

>  <PUBCHEM_ISOTOPIC_ATOM_COUNT>  (1) 
0

>  <PUBCHEM_COMPONENT_COUNT>  (1) 
1

>  <PUBCHEM_CACTVS_TAUTO_COUNT>  (1) 
-1

>  <PUBCHEM_COORDINATE_TYPE>  (1) 
1
5
255

>  <PUBCHEM_BONDANNOTATIONS>  (1) 
9  10  1

$$$$
