377
     RDKit          2D

 35 35  0  0  1  0  0  0  0  0999 V2000
    3.7155   -0.8099    0.0000 P   0  0  0  0  0  0  0  0  0  0  0  0
    2.7486   -3.2214    0.0000 P   0  0  0  0  0  0  0  0  0  0  0  0
    0.9309    0.3065    0.0000 O   0  0  0  0  0  0  0  0  0  0  0  0
    3.5028    0.6749    0.0000 O   0  0  0  0  0  0  0  0  0  0  0  0
    0.2929    4.7611    0.0000 O   0  0  0  0  0  0  0  0  0  0  0  0
   -2.0663    2.9078    0.0000 O   0  0  0  0  0  0  0  0  0  0  0  0
   -1.4282   -1.5467    0.0000 O   0  0  0  0  0  0  0  0  0  0  0  0
    3.9281   -2.2948    0.0000 O   0  0  0  0  0  0  0  0  0  0  0  0
    1.5690   -4.1480    0.0000 O   0  0  0  0  0  0  0  0  0  0  0  0
    5.2003   -0.5972    0.0000 O   0  0  0  0  0  0  0  0  0  0  0  0
    4.6823    1.6015    0.0000 O   0  0  0  0  0  0  0  0  0  0  0  0
    2.2306   -1.0226    0.0000 O   0  0  0  0  0  0  0  0  0  0  0  0
    1.8220   -2.0418    0.0000 O   0  0  0  0  0  0  0  0  0  0  0  0
    3.6752   -4.4010    0.0000 O   0  0  0  0  0  0  0  0  0  0  0  0
    3.0774    3.6446    0.0000 N   0  0  0  0  0  0  0  0  0  0  0  0
    1.8978    2.7180    0.0000 C   0  0  0  0  0  0  0  0  0  0  0  0
    0.5056    3.2762    0.0000 C   0  0  0  0  0  0  0  0  0  0  0  0
   -0.6740    2.3496    0.0000 C   0  0  0  0  0  0  0  0  0  0  0  0
   -0.4613    0.8648    0.0000 C   0  0  0  0  0  0  0  0  0  0  0  0
    2.1105    1.2331    0.0000 C   0  0  0  0  0  0  0  0  0  0  0  0
   -1.6409   -0.0619    0.0000 C   0  0  0  0  0  0  0  0  0  0  0  0
   -2.3951   -3.9582    0.0000 C   0  0  0  0  0  0  0  0  0  0  0  0
    4.4696    3.0864    0.0000 C   0  0  0  0  0  0  0  0  0  0  0  0
   -2.6078   -2.4733    0.0000 C   0  0  0  0  0  0  0  0  0  0  0  0
   -1.0028   -4.5164    0.0000 C   0  0  0  0  0  0  0  0  0  0  0  0
   -4.0000   -1.9151    0.0000 C   0  0  0  0  0  0  0  0  0  0  0  0
   -3.5746   -4.8848    0.0000 C   0  0  0  0  0  0  0  0  0  0  0  0
    0.1768   -3.5898    0.0000 C   0  0  0  0  0  0  0  0  0  0  0  0
    5.6492    4.0130    0.0000 C   0  0  0  0  0  0  0  0  0  0  0  0
   -4.2127   -0.4303    0.0000 C   0  0  0  0  0  0  0  0  0  0  0  0
   -5.6050    0.1280    0.0000 C   0  0  0  0  0  0  0  0  0  0  0  0
   -5.8177    1.6128    0.0000 C   0  0  0  0  0  0  0  0  0  0  0  0
   -4.6381    2.5394    0.0000 C   0  0  0  0  0  0  0  0  0  0  0  0
   -7.2099    2.1710    0.0000 C   0  0  0  0  0  0  0  0  0  0  0  0
   -4.8508    4.0243    0.0000 C   0  0  0  0  0  0  0  0  0  0  0  0
  1  4  1  0
  1  8  1  0
  1 10  1  0
  1 12  2  0
  2  8  1  0
  2  9  1  0
  2 13  1  0
  2 14  2  0
  3 19  1  0
  3 20  1  0
  4 20  1  0
  5 17  1  0
  6 18  1  0
  7 21  1  0
  9 28  1  0
 11 23  2  0
 15 16  1  0
 15 23  1  0
 16 17  1  0
 16 20  1  0
 17 18  1  0
 18 19  1  0
 19 21  1  0
 22 24  1  0
 22 25  1  0
 22 27  1  0
 23 29  1  0
 24 26  1  0
 25 28  1  0
 26 30  1  0
 30 31  1  0
 31 32  2  3
 32 33  1  0
 32 34  1  0
 33 35  1  0
M  END
>  <PUBCHEM_COMPOUND_CID>  (1) 
377

>  <PUBCHEM_COMPOUND_CANONICALIZED>  (1) 
1

>  <PUBCHEM_CACTVS_COMPLEXITY>  (1) 
794

>  <PUBCHEM_CACTVS_HBOND_ACCEPTOR>  (1) 
12

>  <PUBCHEM_CACTVS_HBOND_DONOR>  (1) 
6

>  <PUBCHEM_CACTVS_ROTATABLE_BOND>  (1) 
15

>  <PUBCHEM_CACTVS_SUBSKEYS>  (1) 
AAADcfB6PAMAAAAAAAAAAAAAAAAAAAAAAAAkAAAAAAAAAAAAAAAAHgAQCCAADTzxgAcCCALABxCIQiFSEIAAAAAgAAAACIAIAAgTEAIAgQAHQAAHlgCfAAPw8CcOAAAAAAAAAAAAAAAAAAAAAAAAAAAAAA==

>  <PUBCHEM_IUPAC_OPENEYE_NAME>  (1) 
[3-acetamido-4,5-dihydroxy-6-(hydroxymethyl)tetrahydropyran-2-yl] [3,8-dimethyldec-7-enoxy(hydroxy)phosphoryl] hydrogen phosphate

>  <PUBCHEM_IUPAC_CAS_NAME>  (1) 
[3-acetamido-4,5-dihydroxy-6-(hydroxymethyl)-2-oxanyl] [3,8-dimethyldec-7-enoxy(hydroxy)phosphoryl] hydrogen phosphate

>  <PUBCHEM_IUPAC_NAME_MARKUP>  (1) 
[3-acetamido-4,5-dihydroxy-6-(hydroxymethyl)oxan-2-yl] [3,8-dimethyldec-7-enoxy(hydroxy)phosphoryl] hydrogen phosphate

>  <PUBCHEM_IUPAC_NAME>  (1) 
[3-acetamido-4,5-dihydroxy-6-(hydroxymethyl)oxan-2-yl] [3,8-dimethyldec-7-enoxy(hydroxy)phosphoryl] hydrogen phosphate

>  <PUBCHEM_IUPAC_SYSTEMATIC_NAME>  (1) 
[3-acetamido-6-(hydroxymethyl)-4,5-bis(oxidanyl)oxan-2-yl] [3,8-dimethyldec-7-enoxy(oxidanyl)phosphoryl] hydrogen phosphate

>  <PUBCHEM_IUPAC_TRADITIONAL_NAME>  (1) 
(3-acetamido-4,5-dihydroxy-6-methylol-tetrahydropyran-2-yl) [3,8-dimethyldec-7-enoxy(hydroxy)phosphoryl] hydrogen phosphate

>  <PUBCHEM_IUPAC_INCHI>  (1) 
InChI=1S/C20H39NO12P2/c1-5-13(2)8-6-7-9-14(3)10-11-30-34(26,27)33-35(28,29)32-20-17(21-15(4)23)19(25)18(24)16(12-22)31-20/h8,14,16-20,22,24-25H,5-7,9-12H2,1-4H3,(H,21,23)(H,26,27)(H,28,29)

>  <PUBCHEM_IUPAC_INCHIKEY>  (1) 
GXWRCBMYVOWMBQ-UHFFFAOYSA-N

>  <PUBCHEM_XLOGP3_AA>  (1) 
0.4

>  <PUBCHEM_EXACT_MASS>  (1) 
547.19475

>  <PUBCHEM_MOLECULAR_FORMULA>  (1) 
C20H39NO12P2

>  <PUBCHEM_MOLECULAR_WEIGHT>  (1) 
547.5

>  <PUBCHEM_OPENEYE_CAN_SMILES>  (1) 
CCC(=CCCCC(C)CCOP(=O)(O)OP(=O)(O)OC1C(C(C(C(O1)CO)O)O)NC(=O)C)C

>  <PUBCHEM_OPENEYE_ISO_SMILES>  (1) 
CCC(=CCCCC(C)CCOP(=O)(O)OP(=O)(O)OC1C(C(C(C(O1)CO)O)O)NC(=O)C)C

>  <PUBCHEM_CACTVS_TPSA>  (1) 
201

>  <PUBCHEM_MONOISOTOPIC_WEIGHT>  (1) 
547.19475

>  <PUBCHEM_TOTAL_CHARGE>  (1) 
0

>  <PUBCHEM_HEAVY_ATOM_COUNT>  (1) 
35

>  <PUBCHEM_ATOM_DEF_STEREO_COUNT>  (1) 
0

>  <PUBCHEM_ATOM_UDEF_STEREO_COUNT>  (1) 
6

>  <PUBCHEM_BOND_DEF_STEREO_COUNT>  (1) 
0

>  <PUBCHEM_BOND_UDEF_STEREO_COUNT>  (1) 
1

>  <PUBCHEM_ISOTOPIC_ATOM_COUNT>  (1) 
0

>  <PUBCHEM_COMPONENT_COUNT>  (1) 
1

>  <PUBCHEM_CACTVS_TAUTO_COUNT>  (1) 
-1

>  <PUBCHEM_COORDINATE_TYPE>  (1) 
1
5
255

>  <PUBCHEM_BONDANNOTATIONS>  (1) 
16  15  3
19  21  3
22  27  3
31  32  1
20  4  3
17  5  3
18  6  3

$$$$
