378
     RDKit          2D

 14 14  0  0  0  0  0  0  0  0999 V2000
   -3.2648    0.1698    0.0000 P   0  0  0  0  0  0  0  0  0  0  0  0
   -2.2645   -0.9480    0.0000 O   0  0  0  0  0  0  0  0  0  0  0  0
   -2.1469    1.1700    0.0000 O   0  0  0  0  0  0  0  0  0  0  0  0
   -4.2650    1.2876    0.0000 O   0  0  0  0  0  0  0  0  0  0  0  0
   -4.3826   -0.8304    0.0000 O   0  0  0  0  0  0  0  0  0  0  0  0
    4.6084   -0.8365    0.0000 O   0  0  0  0  0  0  0  0  0  0  0  0
    4.0761    1.7064    0.0000 O   0  0  0  0  0  0  0  0  0  0  0  0
    3.6082    0.2813    0.0000 N   0  0  0  0  0  0  0  0  0  0  0  0
   -0.7963   -0.6407    0.0000 C   0  0  0  0  0  0  0  0  0  0  0  0
    2.1400   -0.0260    0.0000 C   0  0  0  0  0  0  0  0  0  0  0  0
   -0.3284    0.7845    0.0000 C   0  0  0  0  0  0  0  0  0  0  0  0
    0.2039   -1.7585    0.0000 C   0  0  0  0  0  0  0  0  0  0  0  0
    1.1398    1.0918    0.0000 C   0  0  0  0  0  0  0  0  0  0  0  0
    1.6721   -1.4512    0.0000 C   0  0  0  0  0  0  0  0  0  0  0  0
  1  2  1  0
  1  3  1  0
  1  4  1  0
  1  5  2  0
  2  9  1  0
  6  8  1  0
  7  8  2  0
  8 10  1  0
  9 11  2  0
  9 12  1  0
 10 13  2  0
 10 14  1  0
 11 13  1  0
 12 14  2  0
M  CHG  2   6  -1   8   1
M  END
>  <PUBCHEM_COMPOUND_CID>  (1) 
378

>  <PUBCHEM_COMPOUND_CANONICALIZED>  (1) 
1

>  <PUBCHEM_CACTVS_COMPLEXITY>  (1) 
250

>  <PUBCHEM_CACTVS_HBOND_ACCEPTOR>  (1) 
6

>  <PUBCHEM_CACTVS_HBOND_DONOR>  (1) 
2

>  <PUBCHEM_CACTVS_ROTATABLE_BOND>  (1) 
2

>  <PUBCHEM_CACTVS_SUBSKEYS>  (1) 
AAADcYBiOAIAAAAAAAAAAAAAAAAAAAAAAAAwAAAAAAAAAAABAAAAHgAECCAACAyBkAAwxoAQQRCBQCRCQ4CCAAAgIgAoiAAGbIoIJiKAkZOAMABkwBEIyAewQAAAAEAAAAAAAAAAgAAAAAAAAAAAAAAAAA==

>  <PUBCHEM_IUPAC_OPENEYE_NAME>  (1) 
(4-nitrophenyl) dihydrogen phosphate

>  <PUBCHEM_IUPAC_CAS_NAME>  (1) 
(4-nitrophenyl) dihydrogen phosphate

>  <PUBCHEM_IUPAC_NAME_MARKUP>  (1) 
(4-nitrophenyl) dihydrogen phosphate

>  <PUBCHEM_IUPAC_NAME>  (1) 
(4-nitrophenyl) dihydrogen phosphate

>  <PUBCHEM_IUPAC_SYSTEMATIC_NAME>  (1) 
(4-nitrophenyl) dihydrogen phosphate

>  <PUBCHEM_IUPAC_TRADITIONAL_NAME>  (1) 
(4-nitrophenyl) dihydrogen phosphate

>  <PUBCHEM_IUPAC_INCHI>  (1) 
InChI=1S/C6H6NO6P/c8-7(9)5-1-3-6(4-2-5)13-14(10,11)12/h1-4H,(H2,10,11,12)

>  <PUBCHEM_IUPAC_INCHIKEY>  (1) 
XZKIHKMTEMTJQX-UHFFFAOYSA-N

>  <PUBCHEM_XLOGP3>  (1) 
0.3

>  <PUBCHEM_EXACT_MASS>  (1) 
218.993274

>  <PUBCHEM_MOLECULAR_FORMULA>  (1) 
C6H6NO6P

>  <PUBCHEM_MOLECULAR_WEIGHT>  (1) 
219.09

>  <PUBCHEM_OPENEYE_CAN_SMILES>  (1) 
C1=CC(=CC=C1[N+](=O)[O-])OP(=O)(O)O

>  <PUBCHEM_OPENEYE_ISO_SMILES>  (1) 
C1=CC(=CC=C1[N+](=O)[O-])OP(=O)(O)O

>  <PUBCHEM_CACTVS_TPSA>  (1) 
113

>  <PUBCHEM_MONOISOTOPIC_WEIGHT>  (1) 
218.993274

>  <PUBCHEM_TOTAL_CHARGE>  (1) 
0

>  <PUBCHEM_HEAVY_ATOM_COUNT>  (1) 
14

>  <PUBCHEM_ATOM_DEF_STEREO_COUNT>  (1) 
0

>  <PUBCHEM_ATOM_UDEF_STEREO_COUNT>  (1) 
0

>  <PUBCHEM_BOND_DEF_STEREO_COUNT>  (1) 
0

>  <PUBCHEM_BOND_UDEF_STEREO_COUNT>  (1) 
0

>  <PUBCHEM_ISOTOPIC_ATOM_COUNT>  (1) 
0

>  <PUBCHEM_COMPONENT_COUNT>  (1) 
1

>  <PUBCHEM_CACTVS_TAUTO_COUNT>  (1) 
-1

>  <PUBCHEM_COORDINATE_TYPE>  (1) 
1
5
255

>  <PUBCHEM_BONDANNOTATIONS>  (1) 
10  13  8
10  14  8
11  13  8
12  14  8
9  11  8
9  12  8

$$$$
