381
     RDKit          2D

 57 59  0  0  1  0  0  0  0  0999 V2000
  -13.3995    0.1771    0.0000 S   0  0  0  0  0  0  0  0  0  0  0  0
    5.0125   -1.7434    0.0000 P   0  0  0  0  0  0  0  0  0  0  0  0
    4.7685    3.2872    0.0000 P   0  0  0  0  0  0  0  0  0  0  0  0
    2.1705    3.2715    0.0000 P   0  0  0  0  0  0  0  0  0  0  0  0
    8.7513    0.9214    0.0000 O   0  0  0  0  0  0  0  0  0  0  0  0
    6.4419   -2.1983    0.0000 O   0  0  0  0  0  0  0  0  0  0  0  0
    9.6380   -2.8574    0.0000 O   0  0  0  0  0  0  0  0  0  0  0  0
    6.0720    2.5451    0.0000 O   0  0  0  0  0  0  0  0  0  0  0  0
    5.4674   -0.3140    0.0000 O   0  0  0  0  0  0  0  0  0  0  0  0
    3.5832   -1.2885    0.0000 O   0  0  0  0  0  0  0  0  0  0  0  0
    3.4649    4.0293    0.0000 O   0  0  0  0  0  0  0  0  0  0  0  0
    4.5576   -3.1727    0.0000 O   0  0  0  0  0  0  0  0  0  0  0  0
    0.8760    2.5136    0.0000 O   0  0  0  0  0  0  0  0  0  0  0  0
    5.5106    4.5907    0.0000 O   0  0  0  0  0  0  0  0  0  0  0  0
   -1.6948   -2.0021    0.0000 O   0  0  0  0  0  0  0  0  0  0  0  0
    4.0264    1.9836    0.0000 O   0  0  0  0  0  0  0  0  0  0  0  0
    2.9283    1.9770    0.0000 O   0  0  0  0  0  0  0  0  0  0  0  0
    1.4126    4.5659    0.0000 O   0  0  0  0  0  0  0  0  0  0  0  0
   -3.0165    1.7400    0.0000 O   0  0  0  0  0  0  0  0  0  0  0  0
   -8.2126    1.7085    0.0000 O   0  0  0  0  0  0  0  0  0  0  0  0
  -17.2830   -2.0964    0.0000 O   0  0  0  0  0  0  0  0  0  0  0  0
  -14.6849   -2.0807    0.0000 O   0  0  0  0  0  0  0  0  0  0  0  0
  -19.8810   -2.1122    0.0000 O   0  0  0  0  0  0  0  0  0  0  0  0
   11.2525   -0.0214    0.0000 N   0  0  0  0  0  0  0  0  0  0  0  0
   13.4637    0.9791    0.0000 N   0  0  0  0  0  0  0  0  0  0  0  0
   12.1152   -2.6228    0.0000 N   0  0  0  0  0  0  0  0  0  0  0  0
   14.7006   -2.8787    0.0000 N   0  0  0  0  0  0  0  0  0  0  0  0
   16.2150   -0.7676    0.0000 N   0  0  0  0  0  0  0  0  0  0  0  0
   -4.3019   -0.5178    0.0000 N   0  0  0  0  0  0  0  0  0  0  0  0
   -9.4980   -0.5493    0.0000 N   0  0  0  0  0  0  0  0  0  0  0  0
    7.5505   -1.1878    0.0000 C   0  0  0  0  0  0  0  0  0  0  0  0
    9.0196   -1.4908    0.0000 C   0  0  0  0  0  0  0  0  0  0  0  0
    7.3847    0.3030    0.0000 C   0  0  0  0  0  0  0  0  0  0  0  0
    9.7617   -0.1873    0.0000 C   0  0  0  0  0  0  0  0  0  0  0  0
    6.0811    1.0451    0.0000 C   0  0  0  0  0  0  0  0  0  0  0  0
   12.2629   -1.1300    0.0000 C   0  0  0  0  0  0  0  0  0  0  0  0
   11.9946    1.2821    0.0000 C   0  0  0  0  0  0  0  0  0  0  0  0
   13.6295   -0.5117    0.0000 C   0  0  0  0  0  0  0  0  0  0  0  0
   -0.4094    0.2558    0.0000 C   0  0  0  0  0  0  0  0  0  0  0  0
   -1.7039   -0.5021    0.0000 C   0  0  0  0  0  0  0  0  0  0  0  0
    0.8851    1.0136    0.0000 C   0  0  0  0  0  0  0  0  0  0  0  0
   14.8484   -1.3860    0.0000 C   0  0  0  0  0  0  0  0  0  0  0  0
   -1.1673    1.5502    0.0000 C   0  0  0  0  0  0  0  0  0  0  0  0
    0.3485   -1.0387    0.0000 C   0  0  0  0  0  0  0  0  0  0  0  0
   13.3340   -3.4971    0.0000 C   0  0  0  0  0  0  0  0  0  0  0  0
   -3.0074    0.2400    0.0000 C   0  0  0  0  0  0  0  0  0  0  0  0
   -5.6055    0.2243    0.0000 C   0  0  0  0  0  0  0  0  0  0  0  0
   -6.8999   -0.5335    0.0000 C   0  0  0  0  0  0  0  0  0  0  0  0
   -8.2035    0.2086    0.0000 C   0  0  0  0  0  0  0  0  0  0  0  0
  -10.8015    0.1928    0.0000 C   0  0  0  0  0  0  0  0  0  0  0  0
  -12.0960   -0.5650    0.0000 C   0  0  0  0  0  0  0  0  0  0  0  0
  -17.2920   -0.5965    0.0000 C   0  0  0  0  0  0  0  0  0  0  0  0
  -15.9976    0.1614    0.0000 C   0  0  0  0  0  0  0  0  0  0  0  0
  -18.5956    0.1456    0.0000 C   0  0  0  0  0  0  0  0  0  0  0  0
  -14.6940   -0.5807    0.0000 C   0  0  0  0  0  0  0  0  0  0  0  0
  -19.8901   -0.6122    0.0000 C   0  0  0  0  0  0  0  0  0  0  0  0
  -21.1936    0.1299    0.0000 C   0  0  0  0  0  0  0  0  0  0  0  0
  1 51  1  0
  1 55  1  0
  2  6  1  0
  2  9  1  0
  2 10  1  0
  2 12  2  0
  3  8  1  0
  3 11  1  0
  3 14  1  0
  3 16  2  0
  4 11  1  0
  4 13  1  0
  4 17  1  0
  4 18  2  0
  5 33  1  0
  5 34  1  0
  6 31  1  0
  7 32  1  0
  8 35  1  0
 13 41  1  0
 15 40  1  0
 19 46  2  0
 20 49  2  0
 21 52  1  0
 22 55  2  0
 23 56  2  0
 24 34  1  0
 24 36  1  0
 24 37  1  0
 25 37  2  0
 25 38  1  0
 26 36  1  0
 26 45  2  0
 27 42  2  0
 27 45  1  0
 28 42  1  0
 29 46  1  0
 29 47  1  0
 30 49  1  0
 30 50  1  0
 31 32  1  0
 31 33  1  0
 32 34  1  0
 33 35  1  0
 36 38  2  0
 38 42  1  0
 39 40  1  0
 39 41  1  0
 39 43  1  0
 39 44  1  0
 40 46  1  0
 47 48  1  0
 48 49  1  0
 50 51  1  0
 52 53  1  0
 52 54  1  0
 53 55  1  0
 54 56  1  0
 56 57  1  0
M  END
>  <PUBCHEM_COMPOUND_CID>  (1) 
381

>  <PUBCHEM_COMPOUND_CANONICALIZED>  (1) 
1

>  <PUBCHEM_CACTVS_COMPLEXITY>  (1) 
1560

>  <PUBCHEM_CACTVS_HBOND_ACCEPTOR>  (1) 
24

>  <PUBCHEM_CACTVS_HBOND_DONOR>  (1) 
10

>  <PUBCHEM_CACTVS_ROTATABLE_BOND>  (1) 
24

>  <PUBCHEM_CACTVS_SUBSKEYS>  (1) 
AAADcfB7vgNAAAAAAAAAAAAAAAAAAWJAAAAsAAAAAAAAAFgB+AAAHgQQCCAADhzl1waH8L/MFxioQYdxdIKAgC0RELABUKFoVBCDWB5gyEAeRAgPNgLzACH6OgIpAAAAAAAAAAAAAAAAAAAAAAAAAAAAAA==

>  <PUBCHEM_IUPAC_OPENEYE_NAME>  (1) 
S-[2-[3-[[4-[[[5-(6-aminopurin-9-yl)-4-hydroxy-3-phosphonooxy-tetrahydrofuran-2-yl]methoxy-hydroxy-phosphoryl]oxy-hydroxy-phosphoryl]oxy-2-hydroxy-3,3-dimethyl-butanoyl]amino]propanoylamino]ethyl] 3-hydroxy-5-oxo-hexanethioate

>  <PUBCHEM_IUPAC_CAS_NAME>  (1) 
3-hydroxy-5-oxohexanethioic acid S-[2-[[3-[[4-[[[5-(6-aminopurin-9-yl)-4-hydroxy-3-phosphonooxy-2-oxolanyl]methoxy-hydroxyphosphoryl]oxy-hydroxyphosphoryl]oxy-2-hydroxy-3,3-dimethyl-1-oxobutyl]amino]-1-oxopropyl]amino]ethyl] ester

>  <PUBCHEM_IUPAC_NAME_MARKUP>  (1) 
<I>S</I>-[2-[3-[[4-[[[5-(6-aminopurin-9-yl)-4-hydroxy-3-phosphonooxyoxolan-2-yl]methoxy-hydroxyphosphoryl]oxy-hydroxyphosphoryl]oxy-2-hydroxy-3,3-dimethylbutanoyl]amino]propanoylamino]ethyl] 3-hydroxy-5-oxohexanethioate

>  <PUBCHEM_IUPAC_NAME>  (1) 
S-[2-[3-[[4-[[[5-(6-aminopurin-9-yl)-4-hydroxy-3-phosphonooxyoxolan-2-yl]methoxy-hydroxyphosphoryl]oxy-hydroxyphosphoryl]oxy-2-hydroxy-3,3-dimethylbutanoyl]amino]propanoylamino]ethyl] 3-hydroxy-5-oxohexanethioate

>  <PUBCHEM_IUPAC_SYSTEMATIC_NAME>  (1) 
S-[2-[3-[[4-[[[5-(6-aminopurin-9-yl)-4-oxidanyl-3-phosphonooxy-oxolan-2-yl]methoxy-oxidanyl-phosphoryl]oxy-oxidanyl-phosphoryl]oxy-3,3-dimethyl-2-oxidanyl-butanoyl]amino]propanoylamino]ethyl] 3-oxidanyl-5-oxidanylidene-hexanethioate

>  <PUBCHEM_IUPAC_TRADITIONAL_NAME>  (1) 
3-hydroxy-5-keto-hexanethioic acid S-[2-[3-[[4-[[(5-adenin-9-yl-4-hydroxy-3-phosphonooxy-tetrahydrofuran-2-yl)methoxy-hydroxy-phosphoryl]oxy-hydroxy-phosphoryl]oxy-2-hydroxy-3,3-dimethyl-butanoyl]amino]propanoylamino]ethyl] ester

>  <PUBCHEM_IUPAC_INCHI>  (1) 
InChI=1S/C27H44N7O19P3S/c1-14(35)8-15(36)9-18(38)57-7-6-29-17(37)4-5-30-25(41)22(40)27(2,3)11-50-56(47,48)53-55(45,46)49-10-16-21(52-54(42,43)44)20(39)26(51-16)34-13-33-19-23(28)31-12-32-24(19)34/h12-13,15-16,20-22,26,36,39-40H,4-11H2,1-3H3,(H,29,37)(H,30,41)(H,45,46)(H,47,48)(H2,28,31,32)(H2,42,43,44)

>  <PUBCHEM_IUPAC_INCHIKEY>  (1) 
LTOOEXBCTAXFSU-UHFFFAOYSA-N

>  <PUBCHEM_XLOGP3_AA>  (1) 
-6.7

>  <PUBCHEM_EXACT_MASS>  (1) 
895.162554

>  <PUBCHEM_MOLECULAR_FORMULA>  (1) 
C27H44N7O19P3S

>  <PUBCHEM_MOLECULAR_WEIGHT>  (1) 
895.7

>  <PUBCHEM_OPENEYE_CAN_SMILES>  (1) 
CC(=O)CC(CC(=O)SCCNC(=O)CCNC(=O)C(C(C)(C)COP(=O)(O)OP(=O)(O)OCC1C(C(C(O1)N2C=NC3=C(N=CN=C32)N)O)OP(=O)(O)O)O)O

>  <PUBCHEM_OPENEYE_ISO_SMILES>  (1) 
CC(=O)CC(CC(=O)SCCNC(=O)CCNC(=O)C(C(C)(C)COP(=O)(O)OP(=O)(O)OCC1C(C(C(O1)N2C=NC3=C(N=CN=C32)N)O)OP(=O)(O)O)O)O

>  <PUBCHEM_CACTVS_TPSA>  (1) 
426

>  <PUBCHEM_MONOISOTOPIC_WEIGHT>  (1) 
895.162554

>  <PUBCHEM_TOTAL_CHARGE>  (1) 
0

>  <PUBCHEM_HEAVY_ATOM_COUNT>  (1) 
57

>  <PUBCHEM_ATOM_DEF_STEREO_COUNT>  (1) 
0

>  <PUBCHEM_ATOM_UDEF_STEREO_COUNT>  (1) 
6

>  <PUBCHEM_BOND_DEF_STEREO_COUNT>  (1) 
0

>  <PUBCHEM_BOND_UDEF_STEREO_COUNT>  (1) 
0

>  <PUBCHEM_ISOTOPIC_ATOM_COUNT>  (1) 
0

>  <PUBCHEM_COMPONENT_COUNT>  (1) 
1

>  <PUBCHEM_CACTVS_TAUTO_COUNT>  (1) 
-1

>  <PUBCHEM_COORDINATE_TYPE>  (1) 
1
5
255

>  <PUBCHEM_BONDANNOTATIONS>  (1) 
40  15  3
52  21  3
34  24  3
24  36  8
24  37  8
25  37  8
25  38  8
26  36  8
26  45  8
27  42  8
27  45  8
33  35  3
36  38  8
38  42  8
31  6  3
32  7  3

$$$$
