383
     RDKit          2D

 76 82  0  0  1  0  0  0  0  0999 V2000
   -9.4135   -4.2294    0.0000 S   0  0  0  0  0  0  0  0  0  0  0  0
   11.0890   -3.2737    0.0000 P   0  0  0  0  0  0  0  0  0  0  0  0
    7.5324    3.0224    0.0000 P   0  0  0  0  0  0  0  0  0  0  0  0
    5.0093    2.4026    0.0000 P   0  0  0  0  0  0  0  0  0  0  0  0
  -10.8348   -1.5992    0.0000 O   0  0  0  0  0  0  0  0  0  0  0  0
  -15.4958    3.4529    0.0000 O   0  0  0  0  0  0  0  0  0  0  0  0
   -8.8716    7.5602    0.0000 O   0  0  0  0  0  0  0  0  0  0  0  0
  -10.1383   -6.7243    0.0000 O   0  0  0  0  0  0  0  0  0  0  0  0
   -4.7252   -1.5331    0.0000 O   0  0  0  0  0  0  0  0  0  0  0  0
   11.9563    1.6481    0.0000 O   0  0  0  0  0  0  0  0  0  0  0  0
   10.4361   -1.9232    0.0000 O   0  0  0  0  0  0  0  0  0  0  0  0
   13.6978   -1.8207    0.0000 O   0  0  0  0  0  0  0  0  0  0  0  0
    0.3210   -0.2936    0.0000 O   0  0  0  0  0  0  0  0  0  0  0  0
    8.9728    2.6039    0.0000 O   0  0  0  0  0  0  0  0  0  0  0  0
    2.4771   -3.6255    0.0000 O   0  0  0  0  0  0  0  0  0  0  0  0
    3.9267    1.3644    0.0000 O   0  0  0  0  0  0  0  0  0  0  0  0
   12.4394   -2.6208    0.0000 O   0  0  0  0  0  0  0  0  0  0  0  0
   11.7418   -4.6242    0.0000 O   0  0  0  0  0  0  0  0  0  0  0  0
    6.0919    3.4408    0.0000 O   0  0  0  0  0  0  0  0  0  0  0  0
    9.7385   -3.9266    0.0000 O   0  0  0  0  0  0  0  0  0  0  0  0
    7.1139    1.5819    0.0000 O   0  0  0  0  0  0  0  0  0  0  0  0
    7.9508    4.4628    0.0000 O   0  0  0  0  0  0  0  0  0  0  0  0
    3.9711    3.4852    0.0000 O   0  0  0  0  0  0  0  0  0  0  0  0
    6.0475    1.3200    0.0000 O   0  0  0  0  0  0  0  0  0  0  0  0
   -5.4500   -4.0281    0.0000 N   0  0  0  0  0  0  0  0  0  0  0  0
   -0.4038   -2.7885    0.0000 N   0  0  0  0  0  0  0  0  0  0  0  0
   14.6083    1.3131    0.0000 N   0  0  0  0  0  0  0  0  0  0  0  0
   16.5260    2.8007    0.0000 N   0  0  0  0  0  0  0  0  0  0  0  0
   16.0525   -1.0161    0.0000 N   0  0  0  0  0  0  0  0  0  0  0  0
   18.6265   -0.6635    0.0000 N   0  0  0  0  0  0  0  0  0  0  0  0
   19.6081    1.7420    0.0000 N   0  0  0  0  0  0  0  0  0  0  0  0
  -13.1245   -0.3716    0.0000 C   0  0  0  0  0  0  0  0  0  0  0  0
  -13.9149    0.9033    0.0000 C   0  0  0  0  0  0  0  0  0  0  0  0
  -13.2061    2.2252    0.0000 C   0  0  0  0  0  0  0  0  0  0  0  0
  -11.7069    2.2724    0.0000 C   0  0  0  0  0  0  0  0  0  0  0  0
  -10.9981    3.5943    0.0000 C   0  0  0  0  0  0  0  0  0  0  0  0
  -14.0927   -1.5173    0.0000 C   0  0  0  0  0  0  0  0  0  0  0  0
  -11.6252   -0.3244    0.0000 C   0  0  0  0  0  0  0  0  0  0  0  0
  -10.9164    0.9975    0.0000 C   0  0  0  0  0  0  0  0  0  0  0  0
  -11.7885    4.8692    0.0000 C   0  0  0  0  0  0  0  0  0  0  0  0
  -15.3716    0.5455    0.0000 C   0  0  0  0  0  0  0  0  0  0  0  0
  -13.9966    3.5001    0.0000 C   0  0  0  0  0  0  0  0  0  0  0  0
  -15.4815   -0.9505    0.0000 C   0  0  0  0  0  0  0  0  0  0  0  0
  -13.2878    4.8220    0.0000 C   0  0  0  0  0  0  0  0  0  0  0  0
   -9.4988    3.6415    0.0000 C   0  0  0  0  0  0  0  0  0  0  0  0
  -12.4716   -1.7220    0.0000 C   0  0  0  0  0  0  0  0  0  0  0  0
  -13.7348   -2.9740    0.0000 C   0  0  0  0  0  0  0  0  0  0  0  0
  -11.0797    6.1911    0.0000 C   0  0  0  0  0  0  0  0  0  0  0  0
  -10.2076    2.3195    0.0000 C   0  0  0  0  0  0  0  0  0  0  0  0
   -8.7900    4.9634    0.0000 C   0  0  0  0  0  0  0  0  0  0  0  0
   -9.5804    6.2383    0.0000 C   0  0  0  0  0  0  0  0  0  0  0  0
  -12.2944   -3.3924    0.0000 C   0  0  0  0  0  0  0  0  0  0  0  0
  -14.8175   -4.0122    0.0000 C   0  0  0  0  0  0  0  0  0  0  0  0
  -11.9366   -4.8491    0.0000 C   0  0  0  0  0  0  0  0  0  0  0  0
  -10.4961   -5.2676    0.0000 C   0  0  0  0  0  0  0  0  0  0  0  0
   -7.9731   -4.6478    0.0000 C   0  0  0  0  0  0  0  0  0  0  0  0
   -6.8904   -3.6096    0.0000 C   0  0  0  0  0  0  0  0  0  0  0  0
   -4.3674   -2.9898    0.0000 C   0  0  0  0  0  0  0  0  0  0  0  0
   -2.9269   -3.4083    0.0000 C   0  0  0  0  0  0  0  0  0  0  0  0
   -1.8443   -2.3701    0.0000 C   0  0  0  0  0  0  0  0  0  0  0  0
    0.6788   -1.7503    0.0000 C   0  0  0  0  0  0  0  0  0  0  0  0
   11.2792   -0.6826    0.0000 C   0  0  0  0  0  0  0  0  0  0  0  0
   12.7785   -0.6354    0.0000 C   0  0  0  0  0  0  0  0  0  0  0  0
   10.7711    0.7287    0.0000 C   0  0  0  0  0  0  0  0  0  0  0  0
   13.1969    0.8050    0.0000 C   0  0  0  0  0  0  0  0  0  0  0  0
    2.1192   -2.1688    0.0000 C   0  0  0  0  0  0  0  0  0  0  0  0
    9.3306    1.1472    0.0000 C   0  0  0  0  0  0  0  0  0  0  0  0
    3.2019   -1.1306    0.0000 C   0  0  0  0  0  0  0  0  0  0  0  0
   15.8489    0.4700    0.0000 C   0  0  0  0  0  0  0  0  0  0  0  0
   15.0267    2.7536    0.0000 C   0  0  0  0  0  0  0  0  0  0  0  0
    4.2845   -0.0923    0.0000 C   0  0  0  0  0  0  0  0  0  0  0  0
    4.2401   -2.2132    0.0000 C   0  0  0  0  0  0  0  0  0  0  0  0
    2.1636   -0.0479    0.0000 C   0  0  0  0  0  0  0  0  0  0  0  0
   17.0341    1.3894    0.0000 C   0  0  0  0  0  0  0  0  0  0  0  0
   18.4229    0.8226    0.0000 C   0  0  0  0  0  0  0  0  0  0  0  0
   17.4413   -1.5828    0.0000 C   0  0  0  0  0  0  0  0  0  0  0  0
  1 55  1  0
  1 56  1  0
  2 11  1  0
  2 17  1  0
  2 18  1  0
  2 20  2  0
  3 14  1  0
  3 19  1  0
  3 21  1  0
  3 22  2  0
  4 16  1  0
  4 19  1  0
  4 23  1  0
  4 24  2  0
  5 38  1  0
  6 42  1  0
  7 51  1  0
  8 55  2  0
  9 58  2  0
 10 64  1  0
 10 65  1  0
 11 62  1  0
 12 63  1  0
 13 61  2  0
 14 67  1  0
 15 66  1  0
 16 71  1  0
 25 57  1  0
 25 58  1  0
 26 60  1  0
 26 61  1  0
 27 65  1  0
 27 69  1  0
 27 70  1  0
 28 70  2  0
 28 74  1  0
 29 69  1  0
 29 76  2  0
 30 75  2  0
 30 76  1  0
 31 75  1  0
 32 33  1  0
 32 37  1  0
 32 38  1  0
 32 46  1  0
 33 34  1  0
 33 41  1  0
 34 35  1  0
 34 42  1  0
 35 36  1  0
 35 39  1  0
 36 40  1  0
 36 45  1  0
 36 49  1  0
 37 43  1  0
 37 47  1  0
 38 39  1  0
 40 44  1  0
 40 48  1  0
 41 43  1  0
 42 44  1  0
 45 50  1  0
 47 52  1  0
 47 53  1  0
 48 51  1  0
 50 51  1  0
 52 54  1  0
 54 55  1  0
 56 57  1  0
 58 59  1  0
 59 60  1  0
 61 66  1  0
 62 63  1  0
 62 64  1  0
 63 65  1  0
 64 67  1  0
 66 68  1  0
 68 71  1  0
 68 72  1  0
 68 73  1  0
 69 74  2  0
 74 75  1  0
M  END
>  <PUBCHEM_COMPOUND_CID>  (1) 
383

>  <PUBCHEM_COMPOUND_CANONICALIZED>  (1) 
1

>  <PUBCHEM_CACTVS_COMPLEXITY>  (1) 
2210

>  <PUBCHEM_CACTVS_HBOND_ACCEPTOR>  (1) 
25

>  <PUBCHEM_CACTVS_HBOND_DONOR>  (1) 
12

>  <PUBCHEM_CACTVS_ROTATABLE_BOND>  (1) 
24

>  <PUBCHEM_CACTVS_SUBSKEYS>  (1) 
AAADcfB/vgNAAAAAAAAAAAAAAAAAAeJEAAA8YMEAAAAAAHjB+AAAHgQQCCAADxzl1waH8L/MFxioQQdxdIKAgC0RELABUKFoVBCDWBpgyEAeRAgPFgLzACH6+PaPgAAAAAAAAADAAAYAADAAAQAACAAAAA==

>  <PUBCHEM_IUPAC_OPENEYE_NAME>  (1) 
S-[2-[3-[[4-[[[5-(6-aminopurin-9-yl)-4-hydroxy-3-phosphonooxy-tetrahydrofuran-2-yl]methoxy-hydroxy-phosphoryl]oxy-hydroxy-phosphoryl]oxy-2-hydroxy-3,3-dimethyl-butanoyl]amino]propanoylamino]ethyl] 4-(3,7,12-trihydroxy-10,13-dimethyl-2,3,4,5,6,7,8,9,11,12,14,15,16,17-tetradecahydro-1H-cyclopenta[a]phenanthren-17-yl)pentanethioate

>  <PUBCHEM_IUPAC_CAS_NAME>  (1) 
4-(3,7,12-trihydroxy-10,13-dimethyl-2,3,4,5,6,7,8,9,11,12,14,15,16,17-tetradecahydro-1H-cyclopenta[a]phenanthren-17-yl)pentanethioic acid S-[2-[[3-[[4-[[[5-(6-aminopurin-9-yl)-4-hydroxy-3-phosphonooxy-2-oxolanyl]methoxy-hydroxyphosphoryl]oxy-hydroxyphosphoryl]oxy-2-hydroxy-3,3-dimethyl-1-oxobutyl]amino]-1-oxopropyl]amino]ethyl] ester

>  <PUBCHEM_IUPAC_NAME_MARKUP>  (1) 
<I>S</I>-[2-[3-[[4-[[[5-(6-aminopurin-9-yl)-4-hydroxy-3-phosphonooxyoxolan-2-yl]methoxy-hydroxyphosphoryl]oxy-hydroxyphosphoryl]oxy-2-hydroxy-3,3-dimethylbutanoyl]amino]propanoylamino]ethyl] 4-(3,7,12-trihydroxy-10,13-dimethyl-2,3,4,5,6,7,8,9,11,12,14,15,16,17-tetradecahydro-1<I>H</I>-cyclopenta[a]phenanthren-17-yl)pentanethioate

>  <PUBCHEM_IUPAC_NAME>  (1) 
S-[2-[3-[[4-[[[5-(6-aminopurin-9-yl)-4-hydroxy-3-phosphonooxyoxolan-2-yl]methoxy-hydroxyphosphoryl]oxy-hydroxyphosphoryl]oxy-2-hydroxy-3,3-dimethylbutanoyl]amino]propanoylamino]ethyl] 4-(3,7,12-trihydroxy-10,13-dimethyl-2,3,4,5,6,7,8,9,11,12,14,15,16,17-tetradecahydro-1H-cyclopenta[a]phenanthren-17-yl)pentanethioate

>  <PUBCHEM_IUPAC_SYSTEMATIC_NAME>  (1) 
S-[2-[3-[[4-[[[5-(6-aminopurin-9-yl)-4-oxidanyl-3-phosphonooxy-oxolan-2-yl]methoxy-oxidanyl-phosphoryl]oxy-oxidanyl-phosphoryl]oxy-3,3-dimethyl-2-oxidanyl-butanoyl]amino]propanoylamino]ethyl] 4-[10,13-dimethyl-3,7,12-tris(oxidanyl)-2,3,4,5,6,7,8,9,11,12,14,15,16,17-tetradecahydro-1H-cyclopenta[a]phenanthren-17-yl]pentanethioate

>  <PUBCHEM_IUPAC_TRADITIONAL_NAME>  (1) 
4-(3,7,12-trihydroxy-10,13-dimethyl-2,3,4,5,6,7,8,9,11,12,14,15,16,17-tetradecahydro-1H-cyclopenta[a]phenanthren-17-yl)pentanethioic acid S-[2-[3-[[4-[[(5-adenin-9-yl-4-hydroxy-3-phosphonooxy-tetrahydrofuran-2-yl)methoxy-hydroxy-phosphoryl]oxy-hydroxy-phosphoryl]oxy-2-hydroxy-3,3-dimethyl-butanoyl]amino]propanoylamino]ethyl] ester

>  <PUBCHEM_IUPAC_INCHI>  (1) 
InChI=1S/C45H74N7O20P3S/c1-23(26-7-8-27-34-28(18-31(55)45(26,27)5)44(4)12-10-25(53)16-24(44)17-29(34)54)6-9-33(57)76-15-14-47-32(56)11-13-48-41(60)38(59)43(2,3)20-69-75(66,67)72-74(64,65)68-19-30-37(71-73(61,62)63)36(58)42(70-30)52-22-51-35-39(46)49-21-50-40(35)52/h21-31,34,36-38,42,53-55,58-59H,6-20H2,1-5H3,(H,47,56)(H,48,60)(H,64,65)(H,66,67)(H2,46,49,50)(H2,61,62,63)

>  <PUBCHEM_IUPAC_INCHIKEY>  (1) 
ZKWNOTQHFKYUNU-UHFFFAOYSA-N

>  <PUBCHEM_XLOGP3_AA>  (1) 
-1.9

>  <PUBCHEM_EXACT_MASS>  (1) 
1157.39222

>  <PUBCHEM_MOLECULAR_FORMULA>  (1) 
C45H74N7O20P3S

>  <PUBCHEM_MOLECULAR_WEIGHT>  (1) 
1158.1

>  <PUBCHEM_OPENEYE_CAN_SMILES>  (1) 
CC(CCC(=O)SCCNC(=O)CCNC(=O)C(C(C)(C)COP(=O)(O)OP(=O)(O)OCC1C(C(C(O1)N2C=NC3=C(N=CN=C32)N)O)OP(=O)(O)O)O)C4CCC5C4(C(CC6C5C(CC7C6(CCC(C7)O)C)O)O)C

>  <PUBCHEM_OPENEYE_ISO_SMILES>  (1) 
CC(CCC(=O)SCCNC(=O)CCNC(=O)C(C(C)(C)COP(=O)(O)OP(=O)(O)OCC1C(C(C(O1)N2C=NC3=C(N=CN=C32)N)O)OP(=O)(O)O)O)C4CCC5C4(C(CC6C5C(CC7C6(CCC(C7)O)C)O)O)C

>  <PUBCHEM_CACTVS_TPSA>  (1) 
450

>  <PUBCHEM_MONOISOTOPIC_WEIGHT>  (1) 
1157.39222

>  <PUBCHEM_TOTAL_CHARGE>  (1) 
0

>  <PUBCHEM_HEAVY_ATOM_COUNT>  (1) 
76

>  <PUBCHEM_ATOM_DEF_STEREO_COUNT>  (1) 
0

>  <PUBCHEM_ATOM_UDEF_STEREO_COUNT>  (1) 
16

>  <PUBCHEM_BOND_DEF_STEREO_COUNT>  (1) 
0

>  <PUBCHEM_BOND_UDEF_STEREO_COUNT>  (1) 
0

>  <PUBCHEM_ISOTOPIC_ATOM_COUNT>  (1) 
0

>  <PUBCHEM_COMPONENT_COUNT>  (1) 
1

>  <PUBCHEM_CACTVS_TAUTO_COUNT>  (1) 
-1

>  <PUBCHEM_COORDINATE_TYPE>  (1) 
1
5
255

>  <PUBCHEM_BONDANNOTATIONS>  (1) 
62  11  3
63  12  3
66  15  3
65  27  3
27  69  8
27  70  8
28  70  8
28  74  8
29  69  8
29  76  8
30  75  8
30  76  8
32  46  3
33  41  3
34  42  3
35  39  3
36  49  3
37  43  3
40  48  3
47  53  3
38  5  3
42  6  3
64  67  3
69  74  8
51  7  3
74  75  8

$$$$
