384
     RDKit          2D

 13 12  0  0  1  0  0  0  0  0999 V2000
    2.3961   -1.8453    0.0000 O   0  0  0  0  0  0  0  0  0  0  0  0
   -0.1888   -2.1066    0.0000 O   0  0  0  0  0  0  0  0  0  0  0  0
   -3.2263    2.1092    0.0000 O   0  0  0  0  0  0  0  0  0  0  0  0
   -4.2924   -0.2600    0.0000 O   0  0  0  0  0  0  0  0  0  0  0  0
   -0.4905    0.8782    0.0000 N   0  0  0  0  0  0  0  0  0  0  0  0
    0.8774    0.2627    0.0000 C   0  0  0  0  0  0  0  0  0  0  0  0
    2.0944    1.1395    0.0000 C   0  0  0  0  0  0  0  0  0  0  0  0
   -1.7075    0.0013    0.0000 C   0  0  0  0  0  0  0  0  0  0  0  0
    3.4623    0.5240    0.0000 C   0  0  0  0  0  0  0  0  0  0  0  0
    1.0282   -1.2297    0.0000 C   0  0  0  0  0  0  0  0  0  0  0  0
   -1.5567   -1.4911    0.0000 C   0  0  0  0  0  0  0  0  0  0  0  0
    4.6793    1.4009    0.0000 C   0  0  0  0  0  0  0  0  0  0  0  0
   -3.0754    0.6168    0.0000 C   0  0  0  0  0  0  0  0  0  0  0  0
  1 10  1  0
  2 10  2  0
  3 13  1  0
  4 13  2  0
  5  6  1  0
  5  8  1  0
  6  7  1  0
  6 10  1  0
  7  9  1  0
  8 11  1  0
  8 13  1  0
  9 12  1  0
M  END
>  <PUBCHEM_COMPOUND_CID>  (1) 
384

>  <PUBCHEM_COMPOUND_CANONICALIZED>  (1) 
1

>  <PUBCHEM_CACTVS_COMPLEXITY>  (1) 
193

>  <PUBCHEM_CACTVS_HBOND_ACCEPTOR>  (1) 
5

>  <PUBCHEM_CACTVS_HBOND_DONOR>  (1) 
3

>  <PUBCHEM_CACTVS_ROTATABLE_BOND>  (1) 
6

>  <PUBCHEM_CACTVS_SUBSKEYS>  (1) 
AAADccByOAAAAAAAAAAAAAAAAAAAAAAAAAAAAAAAAAAAAAAAAAAAHgAQCAAACCjBgAQCCALAAgAIAACQCAAAAAAAAAAAAIGIAAACABIAgCAEQAAEEACQAACIAAAAAAAAAAAAAAAAAAAAAAAAAAAAAAAAAA==

>  <PUBCHEM_IUPAC_OPENEYE_NAME>  (1) 
2-(1-carboxyethylamino)pentanoic acid

>  <PUBCHEM_IUPAC_CAS_NAME>  (1) 
2-(1-carboxyethylamino)pentanoic acid

>  <PUBCHEM_IUPAC_NAME_MARKUP>  (1) 
2-(1-carboxyethylamino)pentanoic acid

>  <PUBCHEM_IUPAC_NAME>  (1) 
2-(1-carboxyethylamino)pentanoic acid

>  <PUBCHEM_IUPAC_SYSTEMATIC_NAME>  (1) 
2-[(1-oxidanyl-1-oxidanylidene-propan-2-yl)amino]pentanoic acid

>  <PUBCHEM_IUPAC_TRADITIONAL_NAME>  (1) 
2-(1-carboxyethylamino)valeric acid

>  <PUBCHEM_IUPAC_INCHI>  (1) 
InChI=1S/C8H15NO4/c1-3-4-6(8(12)13)9-5(2)7(10)11/h5-6,9H,3-4H2,1-2H3,(H,10,11)(H,12,13)

>  <PUBCHEM_IUPAC_INCHIKEY>  (1) 
AMDDRMIFTJHJGD-UHFFFAOYSA-N

>  <PUBCHEM_XLOGP3_AA>  (1) 
-1.6

>  <PUBCHEM_EXACT_MASS>  (1) 
189.100108

>  <PUBCHEM_MOLECULAR_FORMULA>  (1) 
C8H15NO4

>  <PUBCHEM_MOLECULAR_WEIGHT>  (1) 
189.21

>  <PUBCHEM_OPENEYE_CAN_SMILES>  (1) 
CCCC(C(=O)O)NC(C)C(=O)O

>  <PUBCHEM_OPENEYE_ISO_SMILES>  (1) 
CCCC(C(=O)O)NC(C)C(=O)O

>  <PUBCHEM_CACTVS_TPSA>  (1) 
86.6

>  <PUBCHEM_MONOISOTOPIC_WEIGHT>  (1) 
189.100108

>  <PUBCHEM_TOTAL_CHARGE>  (1) 
0

>  <PUBCHEM_HEAVY_ATOM_COUNT>  (1) 
13

>  <PUBCHEM_ATOM_DEF_STEREO_COUNT>  (1) 
0

>  <PUBCHEM_ATOM_UDEF_STEREO_COUNT>  (1) 
2

>  <PUBCHEM_BOND_DEF_STEREO_COUNT>  (1) 
0

>  <PUBCHEM_BOND_UDEF_STEREO_COUNT>  (1) 
0

>  <PUBCHEM_ISOTOPIC_ATOM_COUNT>  (1) 
0

>  <PUBCHEM_COMPONENT_COUNT>  (1) 
1

>  <PUBCHEM_CACTVS_TAUTO_COUNT>  (1) 
-1

>  <PUBCHEM_COORDINATE_TYPE>  (1) 
1
5
255

>  <PUBCHEM_BONDANNOTATIONS>  (1) 
6  7  3
8  11  3

$$$$
