388
     RDKit          2D

 56 58  0  0  1  0  0  0  0  0999 V2000
  -13.8011   -0.0656    0.0000 S   0  0  0  0  0  0  0  0  0  0  0  0
    4.6342   -1.7486    0.0000 P   0  0  0  0  0  0  0  0  0  0  0  0
    4.3253    3.2784    0.0000 P   0  0  0  0  0  0  0  0  0  0  0  0
    1.7277    3.2292    0.0000 P   0  0  0  0  0  0  0  0  0  0  0  0
    8.3383    0.9642    0.0000 O   0  0  0  0  0  0  0  0  0  0  0  0
    6.0693   -2.1850    0.0000 O   0  0  0  0  0  0  0  0  0  0  0  0
    9.2736   -2.8029    0.0000 O   0  0  0  0  0  0  0  0  0  0  0  0
    5.6383    2.5532    0.0000 O   0  0  0  0  0  0  0  0  0  0  0  0
    5.0706   -0.3135    0.0000 O   0  0  0  0  0  0  0  0  0  0  0  0
    3.1991   -1.3122    0.0000 O   0  0  0  0  0  0  0  0  0  0  0  0
    3.0123    4.0037    0.0000 O   0  0  0  0  0  0  0  0  0  0  0  0
    0.4431    2.4547    0.0000 O   0  0  0  0  0  0  0  0  0  0  0  0
    4.1978   -3.1837    0.0000 O   0  0  0  0  0  0  0  0  0  0  0  0
    5.0506    4.5915    0.0000 O   0  0  0  0  0  0  0  0  0  0  0  0
   -2.0692   -2.0937    0.0000 O   0  0  0  0  0  0  0  0  0  0  0  0
    3.6001    1.9654    0.0000 O   0  0  0  0  0  0  0  0  0  0  0  0
    2.5022    1.9446    0.0000 O   0  0  0  0  0  0  0  0  0  0  0  0
    0.9532    4.5138    0.0000 O   0  0  0  0  0  0  0  0  0  0  0  0
   -3.4391    1.6310    0.0000 O   0  0  0  0  0  0  0  0  0  0  0  0
   -8.6343    1.5326    0.0000 O   0  0  0  0  0  0  0  0  0  0  0  0
  -15.0573   -2.3398    0.0000 O   0  0  0  0  0  0  0  0  0  0  0  0
  -17.6549   -2.3891    0.0000 O   0  0  0  0  0  0  0  0  0  0  0  0
  -20.2809   -0.9385    0.0000 O   0  0  0  0  0  0  0  0  0  0  0  0
  -19.0247    1.3357    0.0000 O   0  0  0  0  0  0  0  0  0  0  0  0
   10.8515    0.0537    0.0000 N   0  0  0  0  0  0  0  0  0  0  0  0
   13.0496    1.0827    0.0000 N   0  0  0  0  0  0  0  0  0  0  0  0
   11.7476   -2.5363    0.0000 N   0  0  0  0  0  0  0  0  0  0  0  0
   14.3361   -2.7589    0.0000 N   0  0  0  0  0  0  0  0  0  0  0  0
   15.8232   -0.6284    0.0000 N   0  0  0  0  0  0  0  0  0  0  0  0
   -4.6952   -0.6432    0.0000 N   0  0  0  0  0  0  0  0  0  0  0  0
   -9.8905   -0.7416    0.0000 N   0  0  0  0  0  0  0  0  0  0  0  0
    7.1648   -1.1603    0.0000 C   0  0  0  0  0  0  0  0  0  0  0  0
    8.6377   -1.4443    0.0000 C   0  0  0  0  0  0  0  0  0  0  0  0
    6.9798    0.3282    0.0000 C   0  0  0  0  0  0  0  0  0  0  0  0
    9.3629   -0.1313    0.0000 C   0  0  0  0  0  0  0  0  0  0  0  0
    5.6668    1.0535    0.0000 C   0  0  0  0  0  0  0  0  0  0  0  0
   11.8761   -1.0418    0.0000 C   0  0  0  0  0  0  0  0  0  0  0  0
   11.5767    1.3667    0.0000 C   0  0  0  0  0  0  0  0  0  0  0  0
   13.2346   -0.4058    0.0000 C   0  0  0  0  0  0  0  0  0  0  0  0
   -0.8130    0.1805    0.0000 C   0  0  0  0  0  0  0  0  0  0  0  0
   -2.0976   -0.5940    0.0000 C   0  0  0  0  0  0  0  0  0  0  0  0
    0.4715    0.9550    0.0000 C   0  0  0  0  0  0  0  0  0  0  0  0
   14.4646   -1.2644    0.0000 C   0  0  0  0  0  0  0  0  0  0  0  0
   -1.5875    1.4651    0.0000 C   0  0  0  0  0  0  0  0  0  0  0  0
   -0.0386   -1.1041    0.0000 C   0  0  0  0  0  0  0  0  0  0  0  0
   12.9776   -3.3948    0.0000 C   0  0  0  0  0  0  0  0  0  0  0  0
   -3.4107    0.1313    0.0000 C   0  0  0  0  0  0  0  0  0  0  0  0
   -6.0083    0.0821    0.0000 C   0  0  0  0  0  0  0  0  0  0  0  0
   -7.2929   -0.6924    0.0000 C   0  0  0  0  0  0  0  0  0  0  0  0
   -8.6059    0.0328    0.0000 C   0  0  0  0  0  0  0  0  0  0  0  0
  -11.2035   -0.0164    0.0000 C   0  0  0  0  0  0  0  0  0  0  0  0
  -12.4881   -0.7909    0.0000 C   0  0  0  0  0  0  0  0  0  0  0  0
  -15.0857   -0.8401    0.0000 C   0  0  0  0  0  0  0  0  0  0  0  0
  -16.3987   -0.1148    0.0000 C   0  0  0  0  0  0  0  0  0  0  0  0
  -17.6833   -0.8893    0.0000 C   0  0  0  0  0  0  0  0  0  0  0  0
  -18.9963   -0.1641    0.0000 C   0  0  0  0  0  0  0  0  0  0  0  0
  1 52  1  0
  1 53  1  0
  2  6  1  0
  2  9  1  0
  2 10  1  0
  2 13  2  0
  3  8  1  0
  3 11  1  0
  3 14  1  0
  3 16  2  0
  4 11  1  0
  4 12  1  0
  4 17  1  0
  4 18  2  0
  5 34  1  0
  5 35  1  0
  6 32  1  0
  7 33  1  0
  8 36  1  0
 12 42  1  0
 15 41  1  0
 19 47  2  0
 20 50  2  0
 21 53  2  0
 22 55  1  0
 23 56  1  0
 24 56  2  0
 25 35  1  0
 25 37  1  0
 25 38  1  0
 26 38  2  0
 26 39  1  0
 27 37  1  0
 27 46  2  0
 28 43  2  0
 28 46  1  0
 29 43  1  0
 30 47  1  0
 30 48  1  0
 31 50  1  0
 31 51  1  0
 32 33  1  0
 32 34  1  0
 33 35  1  0
 34 36  1  0
 37 39  2  0
 39 43  1  0
 40 41  1  0
 40 42  1  0
 40 44  1  0
 40 45  1  0
 41 47  1  0
 48 49  1  0
 49 50  1  0
 51 52  1  0
 53 54  1  0
 54 55  1  0
 55 56  1  0
M  END
>  <PUBCHEM_COMPOUND_CID>  (1) 
388

>  <PUBCHEM_COMPOUND_CANONICALIZED>  (1) 
1

>  <PUBCHEM_CACTVS_COMPLEXITY>  (1) 
1550

>  <PUBCHEM_CACTVS_HBOND_ACCEPTOR>  (1) 
25

>  <PUBCHEM_CACTVS_HBOND_DONOR>  (1) 
11

>  <PUBCHEM_CACTVS_ROTATABLE_BOND>  (1) 
23

>  <PUBCHEM_CACTVS_SUBSKEYS>  (1) 
AAADcfB7vgNAAAAAAAAAAAAAAAAAAWJAAAAsAAAAAAAAAFgB+AAAHgQQCCAADhzl1waH+L/MFxioQQfxfIKAgC0RELABUKFoVBCDWB5gyEAeRAgPNgLzACDzMAIJAAAAAAAAAAAAAAAAAAAAAAAAAAAAAA==

>  <PUBCHEM_IUPAC_OPENEYE_NAME>  (1) 
4-[2-[3-[[4-[[[5-(6-aminopurin-9-yl)-4-hydroxy-3-phosphonooxy-tetrahydrofuran-2-yl]methoxy-hydroxy-phosphoryl]oxy-hydroxy-phosphoryl]oxy-2-hydroxy-3,3-dimethyl-butanoyl]amino]propanoylamino]ethylsulfanyl]-2-hydroxy-4-oxo-butanoic acid

>  <PUBCHEM_IUPAC_CAS_NAME>  (1) 
4-[2-[[3-[[4-[[[5-(6-aminopurin-9-yl)-4-hydroxy-3-phosphonooxy-2-oxolanyl]methoxy-hydroxyphosphoryl]oxy-hydroxyphosphoryl]oxy-2-hydroxy-3,3-dimethyl-1-oxobutyl]amino]-1-oxopropyl]amino]ethylthio]-2-hydroxy-4-oxobutanoic acid

>  <PUBCHEM_IUPAC_NAME_MARKUP>  (1) 
4-[2-[3-[[4-[[[5-(6-aminopurin-9-yl)-4-hydroxy-3-phosphonooxyoxolan-2-yl]methoxy-hydroxyphosphoryl]oxy-hydroxyphosphoryl]oxy-2-hydroxy-3,3-dimethylbutanoyl]amino]propanoylamino]ethylsulfanyl]-2-hydroxy-4-oxobutanoic acid

>  <PUBCHEM_IUPAC_NAME>  (1) 
4-[2-[3-[[4-[[[5-(6-aminopurin-9-yl)-4-hydroxy-3-phosphonooxyoxolan-2-yl]methoxy-hydroxyphosphoryl]oxy-hydroxyphosphoryl]oxy-2-hydroxy-3,3-dimethylbutanoyl]amino]propanoylamino]ethylsulfanyl]-2-hydroxy-4-oxobutanoic acid

>  <PUBCHEM_IUPAC_SYSTEMATIC_NAME>  (1) 
4-[2-[3-[[4-[[[5-(6-aminopurin-9-yl)-4-oxidanyl-3-phosphonooxy-oxolan-2-yl]methoxy-oxidanyl-phosphoryl]oxy-oxidanyl-phosphoryl]oxy-3,3-dimethyl-2-oxidanyl-butanoyl]amino]propanoylamino]ethylsulfanyl]-2-oxidanyl-4-oxidanylidene-butanoic acid

>  <PUBCHEM_IUPAC_TRADITIONAL_NAME>  (1) 
4-[2-[3-[[4-[[(5-adenin-9-yl-4-hydroxy-3-phosphonooxy-tetrahydrofuran-2-yl)methoxy-hydroxy-phosphoryl]oxy-hydroxy-phosphoryl]oxy-2-hydroxy-3,3-dimethyl-butanoyl]amino]propanoylamino]ethylthio]-2-hydroxy-4-keto-butyric acid

>  <PUBCHEM_IUPAC_INCHI>  (1) 
InChI=1S/C25H40N7O20P3S/c1-25(2,19(37)22(38)28-4-3-14(34)27-5-6-56-15(35)7-12(33)24(39)40)9-49-55(46,47)52-54(44,45)48-8-13-18(51-53(41,42)43)17(36)23(50-13)32-11-31-16-20(26)29-10-30-21(16)32/h10-13,17-19,23,33,36-37H,3-9H2,1-2H3,(H,27,34)(H,28,38)(H,39,40)(H,44,45)(H,46,47)(H2,26,29,30)(H2,41,42,43)

>  <PUBCHEM_IUPAC_INCHIKEY>  (1) 
HJQWLHMLMCDAEL-UHFFFAOYSA-N

>  <PUBCHEM_XLOGP3_AA>  (1) 
-6.8

>  <PUBCHEM_EXACT_MASS>  (1) 
883.126169

>  <PUBCHEM_MOLECULAR_FORMULA>  (1) 
C25H40N7O20P3S

>  <PUBCHEM_MOLECULAR_WEIGHT>  (1) 
883.6

>  <PUBCHEM_OPENEYE_CAN_SMILES>  (1) 
CC(C)(COP(=O)(O)OP(=O)(O)OCC1C(C(C(O1)N2C=NC3=C(N=CN=C32)N)O)OP(=O)(O)O)C(C(=O)NCCC(=O)NCCSC(=O)CC(C(=O)O)O)O

>  <PUBCHEM_OPENEYE_ISO_SMILES>  (1) 
CC(C)(COP(=O)(O)OP(=O)(O)OCC1C(C(C(O1)N2C=NC3=C(N=CN=C32)N)O)OP(=O)(O)O)C(C(=O)NCCC(=O)NCCSC(=O)CC(C(=O)O)O)O

>  <PUBCHEM_CACTVS_TPSA>  (1) 
447

>  <PUBCHEM_MONOISOTOPIC_WEIGHT>  (1) 
883.126169

>  <PUBCHEM_TOTAL_CHARGE>  (1) 
0

>  <PUBCHEM_HEAVY_ATOM_COUNT>  (1) 
56

>  <PUBCHEM_ATOM_DEF_STEREO_COUNT>  (1) 
0

>  <PUBCHEM_ATOM_UDEF_STEREO_COUNT>  (1) 
6

>  <PUBCHEM_BOND_DEF_STEREO_COUNT>  (1) 
0

>  <PUBCHEM_BOND_UDEF_STEREO_COUNT>  (1) 
0

>  <PUBCHEM_ISOTOPIC_ATOM_COUNT>  (1) 
0

>  <PUBCHEM_COMPONENT_COUNT>  (1) 
1

>  <PUBCHEM_CACTVS_TAUTO_COUNT>  (1) 
-1

>  <PUBCHEM_COORDINATE_TYPE>  (1) 
1
5
255

>  <PUBCHEM_BONDANNOTATIONS>  (1) 
41  15  3
55  22  3
35  25  3
25  37  8
25  38  8
26  38  8
26  39  8
27  37  8
27  46  8
28  43  8
28  46  8
34  36  3
37  39  8
39  43  8
32  6  3
33  7  3

$$$$
