39
     RDKit          2D

  9  9  0  0  0  0  0  0  0  0999 V2000
   -0.8530   -1.6608    0.0000 O   0  0  0  0  0  0  0  0  0  0  0  0
   -0.3588    2.1890    0.0000 O   0  0  0  0  0  0  0  0  0  0  0  0
   -2.8650    0.0990    0.0000 O   0  0  0  0  0  0  0  0  0  0  0  0
    1.0110   -0.1064    0.0000 C   0  0  0  0  0  0  0  0  0  0  0  0
    0.6436   -1.5607    0.0000 C   0  0  0  0  0  0  0  0  0  0  0  0
   -0.2587    0.6923    0.0000 C   0  0  0  0  0  0  0  0  0  0  0  0
    1.6726    1.2398    0.0000 C   0  0  0  0  0  0  0  0  0  0  0  0
    2.4189   -0.6237    0.0000 C   0  0  0  0  0  0  0  0  0  0  0  0
   -1.4107   -0.2683    0.0000 C   0  0  0  0  0  0  0  0  0  0  0  0
  1  5  1  0
  1  9  1  0
  2  6  2  0
  3  9  2  0
  4  5  1  0
  4  6  1  0
  4  7  1  0
  4  8  1  0
  6  9  1  0
M  END
>  <PUBCHEM_COMPOUND_CID>  (1) 
39

>  <PUBCHEM_COMPOUND_CANONICALIZED>  (1) 
1

>  <PUBCHEM_CACTVS_COMPLEXITY>  (1) 
169

>  <PUBCHEM_CACTVS_HBOND_ACCEPTOR>  (1) 
3

>  <PUBCHEM_CACTVS_HBOND_DONOR>  (1) 
0

>  <PUBCHEM_CACTVS_ROTATABLE_BOND>  (1) 
0

>  <PUBCHEM_CACTVS_SUBSKEYS>  (1) 
AAADccBgMAAAAAAAAAAAAAAAAAAAASAAAAAAAAAAAAAAAAAAAAAAGgAAAAAADgSggAICCAAABAAIAICQCAIAAAAAAAAAAAFAAAAAABQAAAQCAAAEIAAAAAACAAAJAAAAAAAAAAAAAAAAAAAAAAAAAAAAAA==

>  <PUBCHEM_IUPAC_OPENEYE_NAME>  (1) 
4,4-dimethyltetrahydrofuran-2,3-dione

>  <PUBCHEM_IUPAC_CAS_NAME>  (1) 
4,4-dimethyloxolane-2,3-dione

>  <PUBCHEM_IUPAC_NAME_MARKUP>  (1) 
4,4-dimethyloxolane-2,3-dione

>  <PUBCHEM_IUPAC_NAME>  (1) 
4,4-dimethyloxolane-2,3-dione

>  <PUBCHEM_IUPAC_SYSTEMATIC_NAME>  (1) 
4,4-dimethyloxolane-2,3-dione

>  <PUBCHEM_IUPAC_TRADITIONAL_NAME>  (1) 
4,4-dimethyltetrahydrofuran-2,3-quinone

>  <PUBCHEM_IUPAC_INCHI>  (1) 
InChI=1S/C6H8O3/c1-6(2)3-9-5(8)4(6)7/h3H2,1-2H3

>  <PUBCHEM_IUPAC_INCHIKEY>  (1) 
HRTOQFBQOFIFEE-UHFFFAOYSA-N

>  <PUBCHEM_XLOGP3_AA>  (1) 
0.6

>  <PUBCHEM_EXACT_MASS>  (1) 
128.047344

>  <PUBCHEM_MOLECULAR_FORMULA>  (1) 
C6H8O3

>  <PUBCHEM_MOLECULAR_WEIGHT>  (1) 
128.13

>  <PUBCHEM_OPENEYE_CAN_SMILES>  (1) 
CC1(COC(=O)C1=O)C

>  <PUBCHEM_OPENEYE_ISO_SMILES>  (1) 
CC1(COC(=O)C1=O)C

>  <PUBCHEM_CACTVS_TPSA>  (1) 
43.4

>  <PUBCHEM_MONOISOTOPIC_WEIGHT>  (1) 
128.047344

>  <PUBCHEM_TOTAL_CHARGE>  (1) 
0

>  <PUBCHEM_HEAVY_ATOM_COUNT>  (1) 
9

>  <PUBCHEM_ATOM_DEF_STEREO_COUNT>  (1) 
0

>  <PUBCHEM_ATOM_UDEF_STEREO_COUNT>  (1) 
0

>  <PUBCHEM_BOND_DEF_STEREO_COUNT>  (1) 
0

>  <PUBCHEM_BOND_UDEF_STEREO_COUNT>  (1) 
0

>  <PUBCHEM_ISOTOPIC_ATOM_COUNT>  (1) 
0

>  <PUBCHEM_COMPONENT_COUNT>  (1) 
1

>  <PUBCHEM_CACTVS_TAUTO_COUNT>  (1) 
-1

>  <PUBCHEM_COORDINATE_TYPE>  (1) 
1
5
255

$$$$
