390
     RDKit          2D

 37 39  0  0  1  0  0  0  0  0999 V2000
   -2.0901   -3.1925    0.0000 P   0  0  0  0  0  0  0  0  0  0  0  0
   -4.4629   -2.1344    0.0000 P   0  0  0  0  0  0  0  0  0  0  0  0
    2.2553   -0.2121    0.0000 O   0  0  0  0  0  0  0  0  0  0  0  0
   -3.2411    0.6055    0.0000 O   0  0  0  0  0  0  0  0  0  0  0  0
    2.1949   -4.0931    0.0000 O   0  0  0  0  0  0  0  0  0  0  0  0
    5.1769   -2.7675    0.0000 O   0  0  0  0  0  0  0  0  0  0  0  0
   -0.5982   -3.0366    0.0000 O   0  0  0  0  0  0  0  0  0  0  0  0
   -5.3439   -0.9203    0.0000 O   0  0  0  0  0  0  0  0  0  0  0  0
   -5.8840    4.2477    0.0000 O   0  0  0  0  0  0  0  0  0  0  0  0
   -7.1058    1.5077    0.0000 O   0  0  0  0  0  0  0  0  0  0  0  0
   -2.9003    4.5595    0.0000 O   0  0  0  0  0  0  0  0  0  0  0  0
   -3.5820   -3.3484    0.0000 O   0  0  0  0  0  0  0  0  0  0  0  0
   -0.2574    0.9174    0.0000 O   0  0  0  0  0  0  0  0  0  0  0  0
    6.5750   -1.4536    0.0000 O   0  0  0  0  0  0  0  0  0  0  0  0
   -0.5274    3.5014    0.0000 O   0  0  0  0  0  0  0  0  0  0  0  0
   -2.2460   -1.7006    0.0000 O   0  0  0  0  0  0  0  0  0  0  0  0
   -5.6770   -3.0154    0.0000 O   0  0  0  0  0  0  0  0  0  0  0  0
   -1.9342   -4.6844    0.0000 O   0  0  0  0  0  0  0  0  0  0  0  0
   -3.2489   -1.2534    0.0000 O   0  0  0  0  0  0  0  0  0  0  0  0
    8.1836    3.4873    0.0000 O   0  0  0  0  0  0  0  0  0  0  0  0
    4.8377    0.4782    0.0000 N   0  0  0  0  0  0  0  0  0  0  0  0
    7.3793    1.0169    0.0000 N   0  0  0  0  0  0  0  0  0  0  0  0
    2.5076   -2.6260    0.0000 C   0  0  0  0  0  0  0  0  0  0  0  0
    3.8783   -2.0167    0.0000 C   0  0  0  0  0  0  0  0  0  0  0  0
    1.5046   -1.5107    0.0000 C   0  0  0  0  0  0  0  0  0  0  0  0
    3.7224   -0.5248    0.0000 C   0  0  0  0  0  0  0  0  0  0  0  0
   -5.0031    3.0336    0.0000 C   0  0  0  0  0  0  0  0  0  0  0  0
   -5.6140    1.6637    0.0000 C   0  0  0  0  0  0  0  0  0  0  0  0
   -3.5112    3.1895    0.0000 C   0  0  0  0  0  0  0  0  0  0  0  0
    0.0127   -1.6666    0.0000 C   0  0  0  0  0  0  0  0  0  0  0  0
   -4.7330    0.4496    0.0000 C   0  0  0  0  0  0  0  0  0  0  0  0
   -2.6302    1.9755    0.0000 C   0  0  0  0  0  0  0  0  0  0  0  0
    6.2640    0.0138    0.0000 C   0  0  0  0  0  0  0  0  0  0  0  0
    4.5267    1.9456    0.0000 C   0  0  0  0  0  0  0  0  0  0  0  0
   -1.1383    2.1314    0.0000 C   0  0  0  0  0  0  0  0  0  0  0  0
    5.6420    2.9486    0.0000 C   0  0  0  0  0  0  0  0  0  0  0  0
    7.0683    2.4843    0.0000 C   0  0  0  0  0  0  0  0  0  0  0  0
  1  7  1  0
  1 12  1  0
  1 16  1  0
  1 18  2  0
  2  8  1  0
  2 12  1  0
  2 17  1  0
  2 19  2  0
  3 25  1  0
  3 26  1  0
  4 31  1  0
  4 32  1  0
  5 23  1  0
  6 24  1  0
  7 30  1  0
  8 31  1  0
  9 27  1  0
 10 28  1  0
 11 29  1  0
 13 35  1  0
 14 33  2  0
 15 35  2  0
 20 37  2  0
 21 26  1  0
 21 33  1  0
 21 34  1  0
 22 33  1  0
 22 37  1  0
 23 24  1  0
 23 25  1  0
 24 26  1  0
 25 30  1  0
 27 28  1  0
 27 29  1  0
 28 31  1  0
 29 32  1  0
 32 35  1  0
 34 36  2  0
 36 37  1  0
M  END
>  <PUBCHEM_COMPOUND_CID>  (1) 
390

>  <PUBCHEM_COMPOUND_CANONICALIZED>  (1) 
1

>  <PUBCHEM_CACTVS_COMPLEXITY>  (1) 
1040

>  <PUBCHEM_CACTVS_HBOND_ACCEPTOR>  (1) 
18

>  <PUBCHEM_CACTVS_HBOND_DONOR>  (1) 
9

>  <PUBCHEM_CACTVS_ROTATABLE_BOND>  (1) 
9

>  <PUBCHEM_CACTVS_SUBSKEYS>  (1) 
AAADceBzPgMAAAAAAAAAAAAAAAAAASAAAAAkQAAAAAAAAAAAAAAAHgAQCCAACBTxgAcBCAPABxCIQCHWWIKAAAAAAgAIAAFIAECTEBYAgAQOQAAPNyIXAMH6fAZAAAAAAAAAAAAAAAAAAAAAAAAAAAAAAA==

>  <PUBCHEM_IUPAC_OPENEYE_NAME>  (1) 
6-[[[5-(2,4-dioxopyrimidin-1-yl)-3,4-dihydroxy-tetrahydrofuran-2-yl]methoxy-hydroxy-phosphoryl]oxy-hydroxy-phosphoryl]oxy-3,4,5-trihydroxy-tetrahydropyran-2-carboxylic acid

>  <PUBCHEM_IUPAC_CAS_NAME>  (1) 
6-[[[5-(2,4-dioxo-1-pyrimidinyl)-3,4-dihydroxy-2-oxolanyl]methoxy-hydroxyphosphoryl]oxy-hydroxyphosphoryl]oxy-3,4,5-trihydroxy-2-oxanecarboxylic acid

>  <PUBCHEM_IUPAC_NAME_MARKUP>  (1) 
6-[[[5-(2,4-dioxopyrimidin-1-yl)-3,4-dihydroxyoxolan-2-yl]methoxy-hydroxyphosphoryl]oxy-hydroxyphosphoryl]oxy-3,4,5-trihydroxyoxane-2-carboxylic acid

>  <PUBCHEM_IUPAC_NAME>  (1) 
6-[[[5-(2,4-dioxopyrimidin-1-yl)-3,4-dihydroxyoxolan-2-yl]methoxy-hydroxyphosphoryl]oxy-hydroxyphosphoryl]oxy-3,4,5-trihydroxyoxane-2-carboxylic acid

>  <PUBCHEM_IUPAC_SYSTEMATIC_NAME>  (1) 
6-[[[5-[2,4-bis(oxidanylidene)pyrimidin-1-yl]-3,4-bis(oxidanyl)oxolan-2-yl]methoxy-oxidanyl-phosphoryl]oxy-oxidanyl-phosphoryl]oxy-3,4,5-tris(oxidanyl)oxane-2-carboxylic acid

>  <PUBCHEM_IUPAC_TRADITIONAL_NAME>  (1) 
6-[[[5-(2,4-diketopyrimidin-1-yl)-3,4-dihydroxy-tetrahydrofuran-2-yl]methoxy-hydroxy-phosphoryl]oxy-hydroxy-phosphoryl]oxy-3,4,5-trihydroxy-tetrahydropyran-2-carboxylic acid

>  <PUBCHEM_IUPAC_INCHI>  (1) 
InChI=1S/C15H22N2O18P2/c18-5-1-2-17(15(26)16-5)12-9(22)6(19)4(32-12)3-31-36(27,28)35-37(29,30)34-14-10(23)7(20)8(21)11(33-14)13(24)25/h1-2,4,6-12,14,19-23H,3H2,(H,24,25)(H,27,28)(H,29,30)(H,16,18,26)

>  <PUBCHEM_IUPAC_INCHIKEY>  (1) 
HDYANYHVCAPMJV-UHFFFAOYSA-N

>  <PUBCHEM_XLOGP3_AA>  (1) 
-6.4

>  <PUBCHEM_EXACT_MASS>  (1) 
580.034286

>  <PUBCHEM_MOLECULAR_FORMULA>  (1) 
C15H22N2O18P2

>  <PUBCHEM_MOLECULAR_WEIGHT>  (1) 
580.28

>  <PUBCHEM_OPENEYE_CAN_SMILES>  (1) 
C1=CN(C(=O)NC1=O)C2C(C(C(O2)COP(=O)(O)OP(=O)(O)OC3C(C(C(C(O3)C(=O)O)O)O)O)O)O

>  <PUBCHEM_OPENEYE_ISO_SMILES>  (1) 
C1=CN(C(=O)NC1=O)C2C(C(C(O2)COP(=O)(O)OP(=O)(O)OC3C(C(C(C(O3)C(=O)O)O)O)O)O)O

>  <PUBCHEM_CACTVS_TPSA>  (1) 
309

>  <PUBCHEM_MONOISOTOPIC_WEIGHT>  (1) 
580.034286

>  <PUBCHEM_TOTAL_CHARGE>  (1) 
0

>  <PUBCHEM_HEAVY_ATOM_COUNT>  (1) 
37

>  <PUBCHEM_ATOM_DEF_STEREO_COUNT>  (1) 
0

>  <PUBCHEM_ATOM_UDEF_STEREO_COUNT>  (1) 
9

>  <PUBCHEM_BOND_DEF_STEREO_COUNT>  (1) 
0

>  <PUBCHEM_BOND_UDEF_STEREO_COUNT>  (1) 
0

>  <PUBCHEM_ISOTOPIC_ATOM_COUNT>  (1) 
0

>  <PUBCHEM_COMPONENT_COUNT>  (1) 
1

>  <PUBCHEM_CACTVS_TAUTO_COUNT>  (1) 
-1

>  <PUBCHEM_COORDINATE_TYPE>  (1) 
1
5
255

>  <PUBCHEM_BONDANNOTATIONS>  (1) 
28  10  3
29  11  3
26  21  3
21  33  8
21  34  8
22  33  8
22  37  8
25  30  3
32  35  3
34  36  8
36  37  8
23  5  3
24  6  3
31  8  3
27  9  3

$$$$
