391
     RDKit          2D

 21 20  0  0  1  0  0  0  0  0999 V2000
    2.8347   -1.0154    0.0000 P   0  0  0  0  0  0  0  0  0  0  0  0
    1.1595   -3.0013    0.0000 P   0  0  0  0  0  0  0  0  0  0  0  0
    3.0990    0.4611    0.0000 O   0  0  0  0  0  0  0  0  0  0  0  0
    2.5703   -2.4919    0.0000 O   0  0  0  0  0  0  0  0  0  0  0  0
    4.3112   -1.2797    0.0000 O   0  0  0  0  0  0  0  0  0  0  0  0
    1.3581   -0.7511    0.0000 O   0  0  0  0  0  0  0  0  0  0  0  0
    0.6501   -1.5904    0.0000 O   0  0  0  0  0  0  0  0  0  0  0  0
   -0.2514   -3.5106    0.0000 O   0  0  0  0  0  0  0  0  0  0  0  0
    1.6688   -4.4122    0.0000 O   0  0  0  0  0  0  0  0  0  0  0  0
    1.0702    3.8720    0.0000 C   0  0  0  0  0  0  0  0  0  0  0  0
   -0.3407    3.3627    0.0000 C   0  0  0  0  0  0  0  0  0  0  0  0
    2.2168    2.9048    0.0000 C   0  0  0  0  0  0  0  0  0  0  0  0
   -0.6050    1.8861    0.0000 C   0  0  0  0  0  0  0  0  0  0  0  0
    1.3346    5.3485    0.0000 C   0  0  0  0  0  0  0  0  0  0  0  0
   -2.0159    1.3768    0.0000 C   0  0  0  0  0  0  0  0  0  0  0  0
    1.9524    1.4283    0.0000 C   0  0  0  0  0  0  0  0  0  0  0  0
   -2.2802   -0.0997    0.0000 C   0  0  0  0  0  0  0  0  0  0  0  0
   -3.6911   -0.6091    0.0000 C   0  0  0  0  0  0  0  0  0  0  0  0
   -4.8376    0.3581    0.0000 C   0  0  0  0  0  0  0  0  0  0  0  0
   -3.9554   -2.0856    0.0000 C   0  0  0  0  0  0  0  0  0  0  0  0
   -6.2485   -0.1513    0.0000 C   0  0  0  0  0  0  0  0  0  0  0  0
  1  3  1  0
  1  4  1  0
  1  5  1  0
  1  6  2  0
  2  4  1  0
  2  7  1  0
  2  8  1  0
  2  9  2  0
  3 16  1  0
 10 11  1  0
 10 12  1  0
 10 14  1  0
 11 13  1  0
 12 16  1  0
 13 15  1  0
 15 17  1  0
 17 18  2  3
 18 19  1  0
 18 20  1  0
 19 21  1  0
M  END
>  <PUBCHEM_COMPOUND_CID>  (1) 
391

>  <PUBCHEM_COMPOUND_CANONICALIZED>  (1) 
1

>  <PUBCHEM_CACTVS_COMPLEXITY>  (1) 
416

>  <PUBCHEM_CACTVS_HBOND_ACCEPTOR>  (1) 
7

>  <PUBCHEM_CACTVS_HBOND_DONOR>  (1) 
3

>  <PUBCHEM_CACTVS_ROTATABLE_BOND>  (1) 
11

>  <PUBCHEM_CACTVS_SUBSKEYS>  (1) 
AAADceBwOAMAAAAAAAAAAAAAAAAAAAAAAAAAAAAAAAAAAAAAAAAAGgAACCAADQCggAICAAAAARCAQiBCAIAAAAAgAAAACAAAAAgAAAIAAQAAAAAEgAAIAAOAwCAOAAAAAAAAAAAAAAAAAAAAAAAAAAAAAA==

>  <PUBCHEM_IUPAC_OPENEYE_NAME>  (1) 
3,8-dimethyldec-7-enyl phosphono hydrogen phosphate

>  <PUBCHEM_IUPAC_CAS_NAME>  (1) 
3,8-dimethyldec-7-enyl phosphono hydrogen phosphate

>  <PUBCHEM_IUPAC_NAME_MARKUP>  (1) 
3,8-dimethyldec-7-enyl phosphono hydrogen phosphate

>  <PUBCHEM_IUPAC_NAME>  (1) 
3,8-dimethyldec-7-enyl phosphono hydrogen phosphate

>  <PUBCHEM_IUPAC_SYSTEMATIC_NAME>  (1) 
3,8-dimethyldec-7-enyl phosphono hydrogen phosphate

>  <PUBCHEM_IUPAC_TRADITIONAL_NAME>  (1) 
3,8-dimethyldec-7-enyl phosphono hydrogen phosphate

>  <PUBCHEM_IUPAC_INCHI>  (1) 
InChI=1S/C12H26O7P2/c1-4-11(2)7-5-6-8-12(3)9-10-18-21(16,17)19-20(13,14)15/h7,12H,4-6,8-10H2,1-3H3,(H,16,17)(H2,13,14,15)

>  <PUBCHEM_IUPAC_INCHIKEY>  (1) 
FFBTVOMODCZDNV-UHFFFAOYSA-N

>  <PUBCHEM_XLOGP3_AA>  (1) 
2

>  <PUBCHEM_EXACT_MASS>  (1) 
344.115377

>  <PUBCHEM_MOLECULAR_FORMULA>  (1) 
C12H26O7P2

>  <PUBCHEM_MOLECULAR_WEIGHT>  (1) 
344.28

>  <PUBCHEM_OPENEYE_CAN_SMILES>  (1) 
CCC(=CCCCC(C)CCOP(=O)(O)OP(=O)(O)O)C

>  <PUBCHEM_OPENEYE_ISO_SMILES>  (1) 
CCC(=CCCCC(C)CCOP(=O)(O)OP(=O)(O)O)C

>  <PUBCHEM_CACTVS_TPSA>  (1) 
113

>  <PUBCHEM_MONOISOTOPIC_WEIGHT>  (1) 
344.115377

>  <PUBCHEM_TOTAL_CHARGE>  (1) 
0

>  <PUBCHEM_HEAVY_ATOM_COUNT>  (1) 
21

>  <PUBCHEM_ATOM_DEF_STEREO_COUNT>  (1) 
0

>  <PUBCHEM_ATOM_UDEF_STEREO_COUNT>  (1) 
1

>  <PUBCHEM_BOND_DEF_STEREO_COUNT>  (1) 
0

>  <PUBCHEM_BOND_UDEF_STEREO_COUNT>  (1) 
1

>  <PUBCHEM_ISOTOPIC_ATOM_COUNT>  (1) 
0

>  <PUBCHEM_COMPONENT_COUNT>  (1) 
1

>  <PUBCHEM_CACTVS_TAUTO_COUNT>  (1) 
-1

>  <PUBCHEM_COORDINATE_TYPE>  (1) 
1
5
255

>  <PUBCHEM_BONDANNOTATIONS>  (1) 
10  14  3
17  18  1

$$$$
