392
     RDKit          2D

 10  9  0  0  1  0  0  0  0  0999 V2000
    4.1116    0.9682    0.0000 O   0  0  0  0  0  0  0  0  0  0  0  0
    2.9330   -1.3472    0.0000 O   0  0  0  0  0  0  0  0  0  0  0  0
    0.3386   -1.4842    0.0000 N   0  0  0  0  0  0  0  0  0  0  0  0
   -4.9295   -0.2604    0.0000 N   0  0  0  0  0  0  0  0  0  0  0  0
    0.2594    0.0137    0.0000 C   0  0  0  0  0  0  0  0  0  0  0  0
   -1.0773    0.6941    0.0000 C   0  0  0  0  0  0  0  0  0  0  0  0
   -2.3350   -0.1233    0.0000 C   0  0  0  0  0  0  0  0  0  0  0  0
    1.5171    0.8312    0.0000 C   0  0  0  0  0  0  0  0  0  0  0  0
   -3.6718    0.5571    0.0000 C   0  0  0  0  0  0  0  0  0  0  0  0
    2.8539    0.1507    0.0000 C   0  0  0  0  0  0  0  0  0  0  0  0
  1 10  1  0
  2 10  2  0
  3  5  1  0
  4  9  1  0
  5  6  1  0
  5  8  1  0
  6  7  1  0
  7  9  1  0
  8 10  1  0
M  END
>  <PUBCHEM_COMPOUND_CID>  (1) 
392

>  <PUBCHEM_COMPOUND_CANONICALIZED>  (1) 
1

>  <PUBCHEM_CACTVS_COMPLEXITY>  (1) 
106

>  <PUBCHEM_CACTVS_HBOND_ACCEPTOR>  (1) 
4

>  <PUBCHEM_CACTVS_HBOND_DONOR>  (1) 
3

>  <PUBCHEM_CACTVS_ROTATABLE_BOND>  (1) 
5

>  <PUBCHEM_CACTVS_SUBSKEYS>  (1) 
AAADccBjMAAAAAAAAAAAAAAAAAAAAAAAAAAAAAAAAAAAAAAAAAAAHgAQCAAACCjBgAQACABAAgAIAACQCAAAAAAAAAAAAIEAAAAAABoAgAAAQAAGEAAAAAGYSAAAAAAAAAAAAAAAAAAAAAAAAAAAAAAAAA==

>  <PUBCHEM_IUPAC_OPENEYE_NAME>  (1) 
3,6-diaminohexanoic acid

>  <PUBCHEM_IUPAC_CAS_NAME>  (1) 
3,6-diaminohexanoic acid

>  <PUBCHEM_IUPAC_NAME_MARKUP>  (1) 
3,6-diaminohexanoic acid

>  <PUBCHEM_IUPAC_NAME>  (1) 
3,6-diaminohexanoic acid

>  <PUBCHEM_IUPAC_SYSTEMATIC_NAME>  (1) 
3,6-bis(azanyl)hexanoic acid

>  <PUBCHEM_IUPAC_TRADITIONAL_NAME>  (1) 
3,6-diaminohexanoic acid

>  <PUBCHEM_IUPAC_INCHI>  (1) 
InChI=1S/C6H14N2O2/c7-3-1-2-5(8)4-6(9)10/h5H,1-4,7-8H2,(H,9,10)

>  <PUBCHEM_IUPAC_INCHIKEY>  (1) 
QKEWQOJCHPFEAF-UHFFFAOYSA-N

>  <PUBCHEM_XLOGP3_AA>  (1) 
-3.7

>  <PUBCHEM_EXACT_MASS>  (1) 
146.105528

>  <PUBCHEM_MOLECULAR_FORMULA>  (1) 
C6H14N2O2

>  <PUBCHEM_MOLECULAR_WEIGHT>  (1) 
146.19

>  <PUBCHEM_OPENEYE_CAN_SMILES>  (1) 
C(CC(CC(=O)O)N)CN

>  <PUBCHEM_OPENEYE_ISO_SMILES>  (1) 
C(CC(CC(=O)O)N)CN

>  <PUBCHEM_CACTVS_TPSA>  (1) 
89.3

>  <PUBCHEM_MONOISOTOPIC_WEIGHT>  (1) 
146.105528

>  <PUBCHEM_TOTAL_CHARGE>  (1) 
0

>  <PUBCHEM_HEAVY_ATOM_COUNT>  (1) 
10

>  <PUBCHEM_ATOM_DEF_STEREO_COUNT>  (1) 
0

>  <PUBCHEM_ATOM_UDEF_STEREO_COUNT>  (1) 
1

>  <PUBCHEM_BOND_DEF_STEREO_COUNT>  (1) 
0

>  <PUBCHEM_BOND_UDEF_STEREO_COUNT>  (1) 
0

>  <PUBCHEM_ISOTOPIC_ATOM_COUNT>  (1) 
0

>  <PUBCHEM_COMPONENT_COUNT>  (1) 
1

>  <PUBCHEM_CACTVS_TAUTO_COUNT>  (1) 
-1

>  <PUBCHEM_COORDINATE_TYPE>  (1) 
1
5
255

>  <PUBCHEM_BONDANNOTATIONS>  (1) 
5  3  3

$$$$
