393
     RDKit          2D

 17 16  0  0  1  0  0  0  0  0999 V2000
   -4.5977   -0.0825    0.0000 P   0  0  0  0  0  0  0  0  0  0  0  0
   -0.5749    1.9342    0.0000 O   0  0  0  0  0  0  0  0  0  0  0  0
   -3.2567    0.5897    0.0000 O   0  0  0  0  0  0  0  0  0  0  0  0
    0.5012   -1.8857    0.0000 O   0  0  0  0  0  0  0  0  0  0  0  0
    2.0187    1.7814    0.0000 O   0  0  0  0  0  0  0  0  0  0  0  0
    3.0948   -2.0386    0.0000 O   0  0  0  0  0  0  0  0  0  0  0  0
   -3.9254   -1.4234    0.0000 O   0  0  0  0  0  0  0  0  0  0  0  0
   -5.9386   -0.7548    0.0000 O   0  0  0  0  0  0  0  0  0  0  0  0
    5.7766   -0.6941    0.0000 O   0  0  0  0  0  0  0  0  0  0  0  0
   -5.2699    1.2584    0.0000 O   0  0  0  0  0  0  0  0  0  0  0  0
    4.6122    1.6285    0.0000 O   0  0  0  0  0  0  0  0  0  0  0  0
   -0.6632    0.4368    0.0000 C   0  0  0  0  0  0  0  0  0  0  0  0
    0.5895   -0.3883    0.0000 C   0  0  0  0  0  0  0  0  0  0  0  0
   -2.0041   -0.2354    0.0000 C   0  0  0  0  0  0  0  0  0  0  0  0
    1.9304    0.2840    0.0000 C   0  0  0  0  0  0  0  0  0  0  0  0
    3.1831   -0.5412    0.0000 C   0  0  0  0  0  0  0  0  0  0  0  0
    4.5240    0.1311    0.0000 C   0  0  0  0  0  0  0  0  0  0  0  0
  1  3  1  0
  1  7  1  0
  1  8  1  0
  1 10  2  0
  2 12  1  0
  3 14  1  0
  4 13  1  0
  5 15  2  0
  6 16  1  0
  9 17  1  0
 11 17  2  0
 12 13  1  0
 12 14  1  0
 13 15  1  0
 15 16  1  0
 16 17  1  0
M  END
>  <PUBCHEM_COMPOUND_CID>  (1) 
393

>  <PUBCHEM_COMPOUND_CANONICALIZED>  (1) 
1

>  <PUBCHEM_CACTVS_COMPLEXITY>  (1) 
334

>  <PUBCHEM_CACTVS_HBOND_ACCEPTOR>  (1) 
10

>  <PUBCHEM_CACTVS_HBOND_DONOR>  (1) 
6

>  <PUBCHEM_CACTVS_ROTATABLE_BOND>  (1) 
7

>  <PUBCHEM_CACTVS_SUBSKEYS>  (1) 
AAADccBgPAIAAAAAAAAAAAAAAAAAAAAAAAAAAAAAAAAAAAAAAAAAGgAACCAACBSggAIACAAAAxAIQICQCIIAAAAAAAAAAAFAAAABEBYIAAAAQAAFIAABAAHKbARAAAAAAAAAAAAAAAAAAAAAAAAAAAAAAA==

>  <PUBCHEM_IUPAC_OPENEYE_NAME>  (1) 
2,4,5-trihydroxy-3-oxo-6-phosphonooxy-hexanoic acid

>  <PUBCHEM_IUPAC_CAS_NAME>  (1) 
2,4,5-trihydroxy-3-oxo-6-phosphonooxyhexanoic acid

>  <PUBCHEM_IUPAC_NAME_MARKUP>  (1) 
2,4,5-trihydroxy-3-oxo-6-phosphonooxyhexanoic acid

>  <PUBCHEM_IUPAC_NAME>  (1) 
2,4,5-trihydroxy-3-oxo-6-phosphonooxyhexanoic acid

>  <PUBCHEM_IUPAC_SYSTEMATIC_NAME>  (1) 
2,4,5-tris(oxidanyl)-3-oxidanylidene-6-phosphonooxy-hexanoic acid

>  <PUBCHEM_IUPAC_TRADITIONAL_NAME>  (1) 
2,4,5-trihydroxy-3-keto-6-phosphonooxy-hexanoic acid

>  <PUBCHEM_IUPAC_INCHI>  (1) 
InChI=1S/C6H11O10P/c7-2(1-16-17(13,14)15)3(8)4(9)5(10)6(11)12/h2-3,5,7-8,10H,1H2,(H,11,12)(H2,13,14,15)

>  <PUBCHEM_IUPAC_INCHIKEY>  (1) 
BDUIIKXSXFDPEC-UHFFFAOYSA-N

>  <PUBCHEM_XLOGP3_AA>  (1) 
-3.9

>  <PUBCHEM_EXACT_MASS>  (1) 
274.008984

>  <PUBCHEM_MOLECULAR_FORMULA>  (1) 
C6H11O10P

>  <PUBCHEM_MOLECULAR_WEIGHT>  (1) 
274.12

>  <PUBCHEM_OPENEYE_CAN_SMILES>  (1) 
C(C(C(C(=O)C(C(=O)O)O)O)O)OP(=O)(O)O

>  <PUBCHEM_OPENEYE_ISO_SMILES>  (1) 
C(C(C(C(=O)C(C(=O)O)O)O)O)OP(=O)(O)O

>  <PUBCHEM_CACTVS_TPSA>  (1) 
182

>  <PUBCHEM_MONOISOTOPIC_WEIGHT>  (1) 
274.008984

>  <PUBCHEM_TOTAL_CHARGE>  (1) 
0

>  <PUBCHEM_HEAVY_ATOM_COUNT>  (1) 
17

>  <PUBCHEM_ATOM_DEF_STEREO_COUNT>  (1) 
0

>  <PUBCHEM_ATOM_UDEF_STEREO_COUNT>  (1) 
3

>  <PUBCHEM_BOND_DEF_STEREO_COUNT>  (1) 
0

>  <PUBCHEM_BOND_UDEF_STEREO_COUNT>  (1) 
0

>  <PUBCHEM_ISOTOPIC_ATOM_COUNT>  (1) 
0

>  <PUBCHEM_COMPONENT_COUNT>  (1) 
1

>  <PUBCHEM_CACTVS_TAUTO_COUNT>  (1) 
-1

>  <PUBCHEM_COORDINATE_TYPE>  (1) 
1
5
255

>  <PUBCHEM_BONDANNOTATIONS>  (1) 
12  2  3
13  4  3
16  6  3

$$$$
