395
     RDKit          2D

 59 63  0  0  1  0  0  0  0  0999 V2000
   -3.6992    5.4781    0.0000 S   0  0  0  0  0  0  0  0  0  0  0  0
   -4.5451   -5.2375    0.0000 S   0  0  0  0  0  0  0  0  0  0  0  0
   10.2965    0.8415    0.0000 O   0  0  0  0  0  0  0  0  0  0  0  0
    9.8340    3.3981    0.0000 O   0  0  0  0  0  0  0  0  0  0  0  0
    9.9816   -1.4214    0.0000 O   0  0  0  0  0  0  0  0  0  0  0  0
   -4.5003    9.9062    0.0000 O   0  0  0  0  0  0  0  0  0  0  0  0
    9.6315   -3.9958    0.0000 O   0  0  0  0  0  0  0  0  0  0  0  0
   -8.9732   -6.0386    0.0000 O   0  0  0  0  0  0  0  0  0  0  0  0
   -0.8714    1.3574    0.0000 N   0  0  0  0  0  0  0  0  0  0  0  0
    3.8939    2.4746    0.0000 N   0  0  0  0  0  0  0  0  0  0  0  0
   -1.4225   -3.0799    0.0000 N   0  0  0  0  0  0  0  0  0  0  0  0
    4.0129   -2.9609    0.0000 N   0  0  0  0  0  0  0  0  0  0  0  0
   -6.5228    6.4916    0.0000 N   0  0  0  0  0  0  0  0  0  0  0  0
   -5.5586   -8.0611    0.0000 N   0  0  0  0  0  0  0  0  0  0  0  0
   -7.0568    9.4437    0.0000 N   0  0  0  0  0  0  0  0  0  0  0  0
   -8.5107   -8.5952    0.0000 N   0  0  0  0  0  0  0  0  0  0  0  0
   -0.6692    2.8437    0.0000 C   0  0  0  0  0  0  0  0  0  0  0  0
   -2.0203    3.4953    0.0000 C   0  0  0  0  0  0  0  0  0  0  0  0
   -3.0575    2.4117    0.0000 C   0  0  0  0  0  0  0  0  0  0  0  0
   -2.2874    4.9714    0.0000 C   0  0  0  0  0  0  0  0  0  0  0  0
   -2.3474    1.0904    0.0000 C   0  0  0  0  0  0  0  0  0  0  0  0
    1.1515    3.5408    0.0000 C   0  0  0  0  0  0  0  0  0  0  0  0
    2.6287    3.2804    0.0000 C   0  0  0  0  0  0  0  0  0  0  0  0
   -2.2830   -1.8512    0.0000 C   0  0  0  0  0  0  0  0  0  0  0  0
   -2.5623   -3.5587    0.0000 C   0  0  0  0  0  0  0  0  0  0  0  0
   -4.5438    2.6138    0.0000 C   0  0  0  0  0  0  0  0  0  0  0  0
    5.4059    2.5970    0.0000 C   0  0  0  0  0  0  0  0  0  0  0  0
    4.3223    3.6342    0.0000 C   0  0  0  0  0  0  0  0  0  0  0  0
    4.7543    1.2459    0.0000 C   0  0  0  0  0  0  0  0  0  0  0  0
   -2.6078   -0.3868    0.0000 C   0  0  0  0  0  0  0  0  0  0  0  0
   -1.4787   -4.5958    0.0000 C   0  0  0  0  0  0  0  0  0  0  0  0
   -0.1574   -3.8858    0.0000 C   0  0  0  0  0  0  0  0  0  0  0  0
   -4.0383   -3.8257    0.0000 C   0  0  0  0  0  0  0  0  0  0  0  0
    4.8188   -1.6957    0.0000 C   0  0  0  0  0  0  0  0  0  0  0  0
    5.1725   -3.3893    0.0000 C   0  0  0  0  0  0  0  0  0  0  0  0
    2.7843   -3.8213    0.0000 C   0  0  0  0  0  0  0  0  0  0  0  0
   -1.1426    5.9406    0.0000 C   0  0  0  0  0  0  0  0  0  0  0  0
    4.1353   -4.4729    0.0000 C   0  0  0  0  0  0  0  0  0  0  0  0
    5.0791   -0.2185    0.0000 C   0  0  0  0  0  0  0  0  0  0  0  0
    6.8819    2.8640    0.0000 C   0  0  0  0  0  0  0  0  0  0  0  0
    1.3198   -4.1461    0.0000 C   0  0  0  0  0  0  0  0  0  0  0  0
   -5.1119    4.0021    0.0000 C   0  0  0  0  0  0  0  0  0  0  0  0
    6.6588   -3.5914    0.0000 C   0  0  0  0  0  0  0  0  0  0  0  0
    4.5244    5.1205    0.0000 C   0  0  0  0  0  0  0  0  0  0  0  0
   -1.6808   -6.0822    0.0000 C   0  0  0  0  0  0  0  0  0  0  0  0
   -3.9662    6.9542    0.0000 C   0  0  0  0  0  0  0  0  0  0  0  0
   -5.0076   -2.6809    0.0000 C   0  0  0  0  0  0  0  0  0  0  0  0
    7.8512    1.7193    0.0000 C   0  0  0  0  0  0  0  0  0  0  0  0
    4.4024   -5.9489    0.0000 C   0  0  0  0  0  0  0  0  0  0  0  0
    7.5771   -2.4053    0.0000 C   0  0  0  0  0  0  0  0  0  0  0  0
   -5.3780    7.4609    0.0000 C   0  0  0  0  0  0  0  0  0  0  0  0
   -6.0212   -5.5045    0.0000 C   0  0  0  0  0  0  0  0  0  0  0  0
   -6.5279   -6.9163    0.0000 C   0  0  0  0  0  0  0  0  0  0  0  0
    9.3273    1.9863    0.0000 C   0  0  0  0  0  0  0  0  0  0  0  0
   -5.6450    8.9370    0.0000 C   0  0  0  0  0  0  0  0  0  0  0  0
    9.0634   -2.6075    0.0000 C   0  0  0  0  0  0  0  0  0  0  0  0
   -8.0040   -7.1834    0.0000 C   0  0  0  0  0  0  0  0  0  0  0  0
   -7.3239   10.9198    0.0000 C   0  0  0  0  0  0  0  0  0  0  0  0
   -9.9868   -8.8622    0.0000 C   0  0  0  0  0  0  0  0  0  0  0  0
  1 20  1  0
  1 46  1  0
  2 33  1  0
  2 52  1  0
  3 54  1  0
  4 54  2  0
  5 56  1  0
  6 55  2  0
  7 56  2  0
  8 57  2  0
  9 17  1  0
  9 21  2  0
 10 23  1  0
 10 29  1  0
 11 24  1  0
 11 32  1  0
 12 34  1  0
 12 36  1  0
 13 51  1  0
 14 53  1  0
 15 55  1  0
 15 58  1  0
 16 57  1  0
 16 59  1  0
 17 18  1  0
 17 22  1  0
 18 19  2  0
 18 20  1  0
 19 21  1  0
 19 26  1  0
 20 37  1  0
 21 30  1  0
 22 23  2  3
 23 28  1  0
 24 25  1  0
 24 30  2  3
 25 31  2  0
 25 33  1  0
 26 42  1  0
 27 28  2  0
 27 29  1  0
 27 40  1  0
 28 44  1  0
 29 39  2  3
 31 32  1  0
 31 45  1  0
 32 41  2  3
 33 47  1  0
 34 35  2  0
 34 39  1  0
 35 38  1  0
 35 43  1  0
 36 38  2  0
 36 41  1  0
 38 49  1  0
 40 48  1  0
 43 50  1  0
 46 51  1  0
 48 54  1  0
 50 56  1  0
 51 55  1  0
 52 53  1  0
 53 57  1  0
M  END
>  <PUBCHEM_COMPOUND_CID>  (1) 
395

>  <PUBCHEM_COMPOUND_CANONICALIZED>  (1) 
1

>  <PUBCHEM_CACTVS_COMPLEXITY>  (1) 
1960

>  <PUBCHEM_CACTVS_HBOND_ACCEPTOR>  (1) 
13

>  <PUBCHEM_CACTVS_HBOND_DONOR>  (1) 
9

>  <PUBCHEM_CACTVS_ROTATABLE_BOND>  (1) 
17

>  <PUBCHEM_CACTVS_SUBSKEYS>  (1) 
AAADcfB/+ABgAAAAAAAAAAAAAAAAAWIECAAAAAAAAAAAAAABgAAAHgQQCAAADCjF3gSCiJLJkgioAyXyXACCgCAhAjAAmaG4RJgIYHLgkJGUQAhkkgDoyAeY2TOegAAAAAAAAAAAAAAAAAAAAAAAAAAAAA==

>  <PUBCHEM_IUPAC_OPENEYE_NAME>  (1) 
3-[7,12-bis[1-[2-amino-3-(methylamino)-3-oxo-propyl]sulfanylethyl]-18-(2-carboxyethyl)-8-ethyl-3,13,17-trimethyl-6,21,23,24-tetrahydroporphyrin-2-yl]propanoic acid

>  <PUBCHEM_IUPAC_CAS_NAME>  (1) 
3-[7,12-bis[1-[[2-amino-3-(methylamino)-3-oxopropyl]thio]ethyl]-18-(2-carboxyethyl)-8-ethyl-3,13,17-trimethyl-6,21,23,24-tetrahydroporphyrin-2-yl]propanoic acid

>  <PUBCHEM_IUPAC_NAME_MARKUP>  (1) 
3-[7,12-bis[1-[2-amino-3-(methylamino)-3-oxopropyl]sulfanylethyl]-18-(2-carboxyethyl)-8-ethyl-3,13,17-trimethyl-6,21,23,24-tetrahydroporphyrin-2-yl]propanoic acid

>  <PUBCHEM_IUPAC_NAME>  (1) 
3-[7,12-bis[1-[2-amino-3-(methylamino)-3-oxopropyl]sulfanylethyl]-18-(2-carboxyethyl)-8-ethyl-3,13,17-trimethyl-6,21,23,24-tetrahydroporphyrin-2-yl]propanoic acid

>  <PUBCHEM_IUPAC_SYSTEMATIC_NAME>  (1) 
3-[7,12-bis[1-[2-azanyl-3-(methylamino)-3-oxidanylidene-propyl]sulfanylethyl]-8-ethyl-18-(3-hydroxy-3-oxopropyl)-3,13,17-trimethyl-6,21,23,24-tetrahydroporphyrin-2-yl]propanoic acid

>  <PUBCHEM_IUPAC_TRADITIONAL_NAME>  (1) 
3-[7,12-bis[1-[[2-amino-3-keto-3-(methylamino)propyl]thio]ethyl]-18-(2-carboxyethyl)-8-ethyl-3,13,17-trimethyl-6,21,23,24-tetrahydroporphin-2-yl]propionic acid

>  <PUBCHEM_IUPAC_INCHI>  (1) 
InChI=1S/C43H58N8O6S2/c1-9-25-33-17-36-40(23(5)58-18-28(44)42(56)46-7)22(4)32(50-36)14-30-20(2)26(10-12-38(52)53)34(48-30)16-35-27(11-13-39(54)55)21(3)31(49-35)15-37(51-33)41(25)24(6)59-19-29(45)43(57)47-8/h14-17,23-24,28-29,37,48-50H,9-13,18-19,44-45H2,1-8H3,(H,46,56)(H,47,57)(H,52,53)(H,54,55)

>  <PUBCHEM_IUPAC_INCHIKEY>  (1) 
SOYOWSWLLUMDSN-UHFFFAOYSA-N

>  <PUBCHEM_XLOGP3_AA>  (1) 
-3.7

>  <PUBCHEM_EXACT_MASS>  (1) 
846.392074

>  <PUBCHEM_MOLECULAR_FORMULA>  (1) 
C43H58N8O6S2

>  <PUBCHEM_MOLECULAR_WEIGHT>  (1) 
847.1

>  <PUBCHEM_OPENEYE_CAN_SMILES>  (1) 
CCC1=C(C2C=C3C(=C(C(=CC4=C(C(=C(N4)C=C5C(=C(C(=CC1=N2)N5)C(C)SCC(C(=O)NC)N)C)C)CCC(=O)O)N3)CCC(=O)O)C)C(C)SCC(C(=O)NC)N

>  <PUBCHEM_OPENEYE_ISO_SMILES>  (1) 
CCC1=C(C2C=C3C(=C(C(=CC4=C(C(=C(N4)C=C5C(=C(C(=CC1=N2)N5)C(C)SCC(C(=O)NC)N)C)C)CCC(=O)O)N3)CCC(=O)O)C)C(C)SCC(C(=O)NC)N

>  <PUBCHEM_CACTVS_TPSA>  (1) 
288

>  <PUBCHEM_MONOISOTOPIC_WEIGHT>  (1) 
846.392074

>  <PUBCHEM_TOTAL_CHARGE>  (1) 
0

>  <PUBCHEM_HEAVY_ATOM_COUNT>  (1) 
59

>  <PUBCHEM_ATOM_DEF_STEREO_COUNT>  (1) 
0

>  <PUBCHEM_ATOM_UDEF_STEREO_COUNT>  (1) 
5

>  <PUBCHEM_BOND_DEF_STEREO_COUNT>  (1) 
0

>  <PUBCHEM_BOND_UDEF_STEREO_COUNT>  (1) 
4

>  <PUBCHEM_ISOTOPIC_ATOM_COUNT>  (1) 
0

>  <PUBCHEM_COMPONENT_COUNT>  (1) 
1

>  <PUBCHEM_CACTVS_TAUTO_COUNT>  (1) 
-1

>  <PUBCHEM_COORDINATE_TYPE>  (1) 
1
5
255

>  <PUBCHEM_BONDANNOTATIONS>  (1) 
10  23  8
10  29  8
11  24  8
11  32  8
12  34  8
12  36  8
51  13  3
53  14  3
17  22  3
20  37  3
22  23  1
23  28  8
24  25  8
24  30  1
25  31  8
27  28  8
27  29  8
29  39  1
31  32  8
32  41  1
33  47  3
34  35  8
35  38  8
36  38  8

$$$$
