399
     RDKit          2D

 13 12  0  0  0  0  0  0  0  0999 V2000
    2.1357   -1.7284    0.0000 O   0  0  0  0  0  0  0  0  0  0  0  0
   -0.4219   -2.1851    0.0000 O   0  0  0  0  0  0  0  0  0  0  0  0
    4.1660    1.6815    0.0000 O   0  0  0  0  0  0  0  0  0  0  0  0
   -4.6538   -0.6551    0.0000 O   0  0  0  0  0  0  0  0  0  0  0  0
    3.2827   -0.7618    0.0000 O   0  0  0  0  0  0  0  0  0  0  0  0
   -3.7705    1.7882    0.0000 O   0  0  0  0  0  0  0  0  0  0  0  0
    0.4614    0.2582    0.0000 C   0  0  0  0  0  0  0  0  0  0  0  0
   -0.9492    0.7682    0.0000 C   0  0  0  0  0  0  0  0  0  0  0  0
    1.6084    1.2249    0.0000 C   0  0  0  0  0  0  0  0  0  0  0  0
   -2.0962   -0.1985    0.0000 C   0  0  0  0  0  0  0  0  0  0  0  0
    0.7251   -1.2184    0.0000 C   0  0  0  0  0  0  0  0  0  0  0  0
    3.0191    0.7149    0.0000 C   0  0  0  0  0  0  0  0  0  0  0  0
   -3.5068    0.3115    0.0000 C   0  0  0  0  0  0  0  0  0  0  0  0
  1 11  1  0
  2 11  2  0
  3 12  1  0
  4 13  1  0
  5 12  2  0
  6 13  2  0
  7  8  1  0
  7  9  2  3
  7 11  1  0
  8 10  2  3
  9 12  1  0
 10 13  1  0
M  END
>  <PUBCHEM_COMPOUND_CID>  (1) 
399

>  <PUBCHEM_COMPOUND_CANONICALIZED>  (1) 
1

>  <PUBCHEM_CACTVS_COMPLEXITY>  (1) 
298

>  <PUBCHEM_CACTVS_HBOND_ACCEPTOR>  (1) 
6

>  <PUBCHEM_CACTVS_HBOND_DONOR>  (1) 
3

>  <PUBCHEM_CACTVS_ROTATABLE_BOND>  (1) 
4

>  <PUBCHEM_CACTVS_SUBSKEYS>  (1) 
AAADcYBgOAAAAAAAAAAAAAAAAAAAAAAAAAAAAAAAAAAAAAAAAAAAGgAACAAADACAgAAACAAAAgCIAiDSCAAAAAAgAAAICAEAAEgIBAAAAQAAUAAAQAAIkYIAAAAAAAAAAAAAAAAAAAAAAAAAAAAAAAAAAA==

>  <PUBCHEM_IUPAC_OPENEYE_NAME>  (1) 
buta-1,3-diene-1,2,4-tricarboxylic acid

>  <PUBCHEM_IUPAC_CAS_NAME>  (1) 
buta-1,3-diene-1,2,4-tricarboxylic acid

>  <PUBCHEM_IUPAC_NAME_MARKUP>  (1) 
buta-1,3-diene-1,2,4-tricarboxylic acid

>  <PUBCHEM_IUPAC_NAME>  (1) 
buta-1,3-diene-1,2,4-tricarboxylic acid

>  <PUBCHEM_IUPAC_SYSTEMATIC_NAME>  (1) 
buta-1,3-diene-1,2,4-tricarboxylic acid

>  <PUBCHEM_IUPAC_TRADITIONAL_NAME>  (1) 
buta-1,3-diene-1,2,4-tricarboxylic acid

>  <PUBCHEM_IUPAC_INCHI>  (1) 
InChI=1S/C7H6O6/c8-5(9)2-1-4(7(12)13)3-6(10)11/h1-3H,(H,8,9)(H,10,11)(H,12,13)

>  <PUBCHEM_IUPAC_INCHIKEY>  (1) 
KJOVGYUGXHIVAY-UHFFFAOYSA-N

>  <PUBCHEM_XLOGP3_AA>  (1) 
-0.5

>  <PUBCHEM_EXACT_MASS>  (1) 
186.016438

>  <PUBCHEM_MOLECULAR_FORMULA>  (1) 
C7H6O6

>  <PUBCHEM_MOLECULAR_WEIGHT>  (1) 
186.12

>  <PUBCHEM_OPENEYE_CAN_SMILES>  (1) 
C(=CC(=O)O)C(=CC(=O)O)C(=O)O

>  <PUBCHEM_OPENEYE_ISO_SMILES>  (1) 
C(=CC(=O)O)C(=CC(=O)O)C(=O)O

>  <PUBCHEM_CACTVS_TPSA>  (1) 
112

>  <PUBCHEM_MONOISOTOPIC_WEIGHT>  (1) 
186.016438

>  <PUBCHEM_TOTAL_CHARGE>  (1) 
0

>  <PUBCHEM_HEAVY_ATOM_COUNT>  (1) 
13

>  <PUBCHEM_ATOM_DEF_STEREO_COUNT>  (1) 
0

>  <PUBCHEM_ATOM_UDEF_STEREO_COUNT>  (1) 
0

>  <PUBCHEM_BOND_DEF_STEREO_COUNT>  (1) 
0

>  <PUBCHEM_BOND_UDEF_STEREO_COUNT>  (1) 
2

>  <PUBCHEM_ISOTOPIC_ATOM_COUNT>  (1) 
0

>  <PUBCHEM_COMPONENT_COUNT>  (1) 
1

>  <PUBCHEM_CACTVS_TAUTO_COUNT>  (1) 
-1

>  <PUBCHEM_COORDINATE_TYPE>  (1) 
1
5
255

>  <PUBCHEM_BONDANNOTATIONS>  (1) 
7  9  1
8  10  1

$$$$
