4
     RDKit          2D

  5  4  0  0  1  0  0  0  0  0999 V2000
   -0.5196    1.5000    0.0000 O   0  0  0  0  0  0  0  0  0  0  0  0
    2.0785   -0.0000    0.0000 N   0  0  0  0  0  0  0  0  0  0  0  0
   -0.5196    0.0000    0.0000 C   0  0  0  0  0  0  0  0  0  0  0  0
    0.7794   -0.7500    0.0000 C   0  0  0  0  0  0  0  0  0  0  0  0
   -1.8187   -0.7500    0.0000 C   0  0  0  0  0  0  0  0  0  0  0  0
  1  3  1  0
  2  4  1  0
  3  4  1  0
  3  5  1  0
M  END
>  <PUBCHEM_COMPOUND_CID>  (1) 
4

>  <PUBCHEM_COMPOUND_CANONICALIZED>  (1) 
1

>  <PUBCHEM_CACTVS_COMPLEXITY>  (1) 
22.9

>  <PUBCHEM_CACTVS_HBOND_ACCEPTOR>  (1) 
2

>  <PUBCHEM_CACTVS_HBOND_DONOR>  (1) 
2

>  <PUBCHEM_CACTVS_ROTATABLE_BOND>  (1) 
1

>  <PUBCHEM_CACTVS_SUBSKEYS>  (1) 
AAADccBCIAAAAAAAAAAAAAAAAAAAAAAAAAAAAAAAAAAAAAAAAAAAHgAQCAAACBThgAYCAABAAgAAAAAAAAAAAAAAAAAAAIAAAAACEAAAAAAAAAAAEAAAAAAAAAAAAAAAAAAAAAAAAAAAAAAAAAAAAAAAAA==

>  <PUBCHEM_IUPAC_OPENEYE_NAME>  (1) 
1-aminopropan-2-ol

>  <PUBCHEM_IUPAC_CAS_NAME>  (1) 
1-amino-2-propanol

>  <PUBCHEM_IUPAC_NAME_MARKUP>  (1) 
1-aminopropan-2-ol

>  <PUBCHEM_IUPAC_NAME>  (1) 
1-aminopropan-2-ol

>  <PUBCHEM_IUPAC_SYSTEMATIC_NAME>  (1) 
1-azanylpropan-2-ol

>  <PUBCHEM_IUPAC_TRADITIONAL_NAME>  (1) 
1-aminopropan-2-ol

>  <PUBCHEM_IUPAC_INCHI>  (1) 
InChI=1S/C3H9NO/c1-3(5)2-4/h3,5H,2,4H2,1H3

>  <PUBCHEM_IUPAC_INCHIKEY>  (1) 
HXKKHQJGJAFBHI-UHFFFAOYSA-N

>  <PUBCHEM_XLOGP3>  (1) 
-1

>  <PUBCHEM_EXACT_MASS>  (1) 
75.068414

>  <PUBCHEM_MOLECULAR_FORMULA>  (1) 
C3H9NO

>  <PUBCHEM_MOLECULAR_WEIGHT>  (1) 
75.11

>  <PUBCHEM_OPENEYE_CAN_SMILES>  (1) 
CC(CN)O

>  <PUBCHEM_OPENEYE_ISO_SMILES>  (1) 
CC(CN)O

>  <PUBCHEM_CACTVS_TPSA>  (1) 
46.2

>  <PUBCHEM_MONOISOTOPIC_WEIGHT>  (1) 
75.068414

>  <PUBCHEM_TOTAL_CHARGE>  (1) 
0

>  <PUBCHEM_HEAVY_ATOM_COUNT>  (1) 
5

>  <PUBCHEM_ATOM_DEF_STEREO_COUNT>  (1) 
0

>  <PUBCHEM_ATOM_UDEF_STEREO_COUNT>  (1) 
1

>  <PUBCHEM_BOND_DEF_STEREO_COUNT>  (1) 
0

>  <PUBCHEM_BOND_UDEF_STEREO_COUNT>  (1) 
0

>  <PUBCHEM_ISOTOPIC_ATOM_COUNT>  (1) 
0

>  <PUBCHEM_COMPONENT_COUNT>  (1) 
1

>  <PUBCHEM_CACTVS_TAUTO_COUNT>  (1) 
-1

>  <PUBCHEM_COORDINATE_TYPE>  (1) 
1
5
255

>  <PUBCHEM_BONDANNOTATIONS>  (1) 
3  1  3

$$$$
