400
     RDKit          2D

 11 11  0  0  0  0  0  0  0  0999 V2000
   -2.2655   -2.7779    0.0000 O   0  0  0  0  0  0  0  0  0  0  0  0
    4.2470   -0.5786    0.0000 O   0  0  0  0  0  0  0  0  0  0  0  0
    1.6490   -0.5583    0.0000 N   0  0  0  0  0  0  0  0  0  0  0  0
    0.3559    0.2018    0.0000 C   0  0  0  0  0  0  0  0  0  0  0  0
   -0.9490   -0.5381    0.0000 C   0  0  0  0  0  0  0  0  0  0  0  0
    0.3676    1.7017    0.0000 C   0  0  0  0  0  0  0  0  0  0  0  0
   -2.2421    0.2220    0.0000 C   0  0  0  0  0  0  0  0  0  0  0  0
   -0.9256    2.4618    0.0000 C   0  0  0  0  0  0  0  0  0  0  0  0
   -2.2304    1.7220    0.0000 C   0  0  0  0  0  0  0  0  0  0  0  0
   -0.9607   -2.0380    0.0000 C   0  0  0  0  0  0  0  0  0  0  0  0
    2.9539    0.1815    0.0000 C   0  0  0  0  0  0  0  0  0  0  0  0
  1 10  2  0
  2 11  2  0
  3  4  1  0
  3 11  1  0
  4  5  2  0
  4  6  1  0
  5  7  1  0
  5 10  1  0
  6  8  2  0
  7  9  2  0
  8  9  1  0
M  END
>  <PUBCHEM_COMPOUND_CID>  (1) 
400

>  <PUBCHEM_COMPOUND_CANONICALIZED>  (1) 
1

>  <PUBCHEM_CACTVS_COMPLEXITY>  (1) 
147

>  <PUBCHEM_CACTVS_HBOND_ACCEPTOR>  (1) 
2

>  <PUBCHEM_CACTVS_HBOND_DONOR>  (1) 
1

>  <PUBCHEM_CACTVS_ROTATABLE_BOND>  (1) 
2

>  <PUBCHEM_CACTVS_SUBSKEYS>  (1) 
AAADcYByMAAAAAAAAAAAAAAAAAAAAAAAAAAwAAAAAAAAAAABAAAAHgAQAAAADAihmAYwwILAAACIAixS0ACCAAAlAgAIiIEIZMgIIDrAlZGEIYhglABIyccYiACOAAAAAAACAAAAAAAAAAQAAAAAAAAAAA==

>  <PUBCHEM_IUPAC_OPENEYE_NAME>  (1) 
N-(2-formylphenyl)formamide

>  <PUBCHEM_IUPAC_CAS_NAME>  (1) 
N-(2-formylphenyl)formamide

>  <PUBCHEM_IUPAC_NAME_MARKUP>  (1) 
<I>N</I>-(2-formylphenyl)formamide

>  <PUBCHEM_IUPAC_NAME>  (1) 
N-(2-formylphenyl)formamide

>  <PUBCHEM_IUPAC_SYSTEMATIC_NAME>  (1) 
N-(2-methanoylphenyl)methanamide

>  <PUBCHEM_IUPAC_TRADITIONAL_NAME>  (1) 
N-(2-formylphenyl)formamide

>  <PUBCHEM_IUPAC_INCHI>  (1) 
InChI=1S/C8H7NO2/c10-5-7-3-1-2-4-8(7)9-6-11/h1-6H,(H,9,11)

>  <PUBCHEM_IUPAC_INCHIKEY>  (1) 
PVIMSPYDDGDCTG-UHFFFAOYSA-N

>  <PUBCHEM_XLOGP3_AA>  (1) 
1.1

>  <PUBCHEM_EXACT_MASS>  (1) 
149.047678

>  <PUBCHEM_MOLECULAR_FORMULA>  (1) 
C8H7NO2

>  <PUBCHEM_MOLECULAR_WEIGHT>  (1) 
149.15

>  <PUBCHEM_OPENEYE_CAN_SMILES>  (1) 
C1=CC=C(C(=C1)C=O)NC=O

>  <PUBCHEM_OPENEYE_ISO_SMILES>  (1) 
C1=CC=C(C(=C1)C=O)NC=O

>  <PUBCHEM_CACTVS_TPSA>  (1) 
46.2

>  <PUBCHEM_MONOISOTOPIC_WEIGHT>  (1) 
149.047678

>  <PUBCHEM_TOTAL_CHARGE>  (1) 
0

>  <PUBCHEM_HEAVY_ATOM_COUNT>  (1) 
11

>  <PUBCHEM_ATOM_DEF_STEREO_COUNT>  (1) 
0

>  <PUBCHEM_ATOM_UDEF_STEREO_COUNT>  (1) 
0

>  <PUBCHEM_BOND_DEF_STEREO_COUNT>  (1) 
0

>  <PUBCHEM_BOND_UDEF_STEREO_COUNT>  (1) 
0

>  <PUBCHEM_ISOTOPIC_ATOM_COUNT>  (1) 
0

>  <PUBCHEM_COMPONENT_COUNT>  (1) 
1

>  <PUBCHEM_CACTVS_TAUTO_COUNT>  (1) 
-1

>  <PUBCHEM_COORDINATE_TYPE>  (1) 
1
5
255

>  <PUBCHEM_BONDANNOTATIONS>  (1) 
4  5  8
4  6  8
5  7  8
6  8  8
7  9  8
8  9  8

$$$$
