401
     RDKit          2D

  7  7  0  0  1  0  0  0  0  0999 V2000
    1.9176   -0.0000    0.0000 O   0  0  0  0  0  0  0  0  0  0  0  0
   -1.6042    1.6317    0.0000 O   0  0  0  0  0  0  0  0  0  0  0  0
    1.0360    1.2135    0.0000 N   0  0  0  0  0  0  0  0  0  0  0  0
   -1.6042   -1.6317    0.0000 N   0  0  0  0  0  0  0  0  0  0  0  0
   -0.3906   -0.7500    0.0000 C   0  0  0  0  0  0  0  0  0  0  0  0
    1.0360   -1.2135    0.0000 C   0  0  0  0  0  0  0  0  0  0  0  0
   -0.3906    0.7500    0.0000 C   0  0  0  0  0  0  0  0  0  0  0  0
  1  3  1  0
  1  6  1  0
  2  7  2  0
  3  7  1  0
  4  5  1  0
  5  6  1  0
  5  7  1  0
M  END
>  <PUBCHEM_COMPOUND_CID>  (1) 
401

>  <PUBCHEM_COMPOUND_CANONICALIZED>  (1) 
1

>  <PUBCHEM_CACTVS_COMPLEXITY>  (1) 
92.9

>  <PUBCHEM_CACTVS_HBOND_ACCEPTOR>  (1) 
3

>  <PUBCHEM_CACTVS_HBOND_DONOR>  (1) 
2

>  <PUBCHEM_CACTVS_ROTATABLE_BOND>  (1) 
0

>  <PUBCHEM_CACTVS_SUBSKEYS>  (1) 
AAADcYBDMAAAAAAAAAAAAAAAAAAAAWAAAAAAAAAAAAAAAAAAAAAAHgAUAAAACCjhgAYAAABQAAAIAAEQEAAAAAAAAAAgAIGAAAACQAQAAAAAAAACMAAAAAAAAAAAAAAAAAAAAAAAAAAAAAAAAAAAAAAAAA==

>  <PUBCHEM_IUPAC_OPENEYE_NAME>  (1) 
4-aminoisoxazolidin-3-one

>  <PUBCHEM_IUPAC_CAS_NAME>  (1) 
4-amino-3-isoxazolidinone

>  <PUBCHEM_IUPAC_NAME_MARKUP>  (1) 
4-amino-1,2-oxazolidin-3-one

>  <PUBCHEM_IUPAC_NAME>  (1) 
4-amino-1,2-oxazolidin-3-one

>  <PUBCHEM_IUPAC_SYSTEMATIC_NAME>  (1) 
4-azanyl-1,2-oxazolidin-3-one

>  <PUBCHEM_IUPAC_TRADITIONAL_NAME>  (1) 
4-aminoisoxazolidin-3-one

>  <PUBCHEM_IUPAC_INCHI>  (1) 
InChI=1S/C3H6N2O2/c4-2-1-7-5-3(2)6/h2H,1,4H2,(H,5,6)

>  <PUBCHEM_IUPAC_INCHIKEY>  (1) 
DYDCUQKUCUHJBH-UHFFFAOYSA-N

>  <PUBCHEM_XLOGP3_AA>  (1) 
-1.5

>  <PUBCHEM_EXACT_MASS>  (1) 
102.042927

>  <PUBCHEM_MOLECULAR_FORMULA>  (1) 
C3H6N2O2

>  <PUBCHEM_MOLECULAR_WEIGHT>  (1) 
102.09

>  <PUBCHEM_OPENEYE_CAN_SMILES>  (1) 
C1C(C(=O)NO1)N

>  <PUBCHEM_OPENEYE_ISO_SMILES>  (1) 
C1C(C(=O)NO1)N

>  <PUBCHEM_CACTVS_TPSA>  (1) 
64.4

>  <PUBCHEM_MONOISOTOPIC_WEIGHT>  (1) 
102.042927

>  <PUBCHEM_TOTAL_CHARGE>  (1) 
0

>  <PUBCHEM_HEAVY_ATOM_COUNT>  (1) 
7

>  <PUBCHEM_ATOM_DEF_STEREO_COUNT>  (1) 
0

>  <PUBCHEM_ATOM_UDEF_STEREO_COUNT>  (1) 
1

>  <PUBCHEM_BOND_DEF_STEREO_COUNT>  (1) 
0

>  <PUBCHEM_BOND_UDEF_STEREO_COUNT>  (1) 
0

>  <PUBCHEM_ISOTOPIC_ATOM_COUNT>  (1) 
0

>  <PUBCHEM_COMPONENT_COUNT>  (1) 
1

>  <PUBCHEM_CACTVS_TAUTO_COUNT>  (1) 
-1

>  <PUBCHEM_COORDINATE_TYPE>  (1) 
1
5
255

>  <PUBCHEM_BONDANNOTATIONS>  (1) 
5  4  3

$$$$
