404
     RDKit          2D

 11 10  0  0  1  0  0  0  0  0999 V2000
    4.5962    0.4509    0.0000 O   0  0  0  0  0  0  0  0  0  0  0  0
    3.3513   -1.8295    0.0000 O   0  0  0  0  0  0  0  0  0  0  0  0
   -5.7931    0.2025    0.0000 O   0  0  0  0  0  0  0  0  0  0  0  0
    1.9630    1.8884    0.0000 N   0  0  0  0  0  0  0  0  0  0  0  0
   -4.4765   -0.5162    0.0000 N   0  0  0  0  0  0  0  0  0  0  0  0
   -0.5985    0.3267    0.0000 C   0  0  0  0  0  0  0  0  0  0  0  0
    0.7181   -0.3920    0.0000 C   0  0  0  0  0  0  0  0  0  0  0  0
   -1.8792   -0.4541    0.0000 C   0  0  0  0  0  0  0  0  0  0  0  0
    1.9989    0.3888    0.0000 C   0  0  0  0  0  0  0  0  0  0  0  0
   -3.1958    0.2646    0.0000 C   0  0  0  0  0  0  0  0  0  0  0  0
    3.3155   -0.3299    0.0000 C   0  0  0  0  0  0  0  0  0  0  0  0
  1 11  1  0
  2 11  2  0
  3  5  1  0
  4  9  1  0
  5 10  1  0
  6  7  1  0
  6  8  1  0
  7  9  1  0
  8 10  1  0
  9 11  1  0
M  END
>  <PUBCHEM_COMPOUND_CID>  (1) 
404

>  <PUBCHEM_COMPOUND_CANONICALIZED>  (1) 
1

>  <PUBCHEM_CACTVS_COMPLEXITY>  (1) 
118

>  <PUBCHEM_CACTVS_HBOND_ACCEPTOR>  (1) 
5

>  <PUBCHEM_CACTVS_HBOND_DONOR>  (1) 
4

>  <PUBCHEM_CACTVS_ROTATABLE_BOND>  (1) 
6

>  <PUBCHEM_CACTVS_SUBSKEYS>  (1) 
AAADccBjMAAAAAAAAAAAAAAAAAAAAAAAAAAAAAAAAAAAAAAAAAAAHgAUCAAACCjBgAQACABQAgAIAACQCAAAAAAAAAAgAIGAAAACABIAgAAAQAAEEAAAAAGYSAAAAAAAAAAAAAAAAAAAAAAAAAAAAAAAAA==

>  <PUBCHEM_IUPAC_OPENEYE_NAME>  (1) 
2-amino-6-(hydroxyamino)hexanoic acid

>  <PUBCHEM_IUPAC_CAS_NAME>  (1) 
2-amino-6-(hydroxyamino)hexanoic acid

>  <PUBCHEM_IUPAC_NAME_MARKUP>  (1) 
2-amino-6-(hydroxyamino)hexanoic acid

>  <PUBCHEM_IUPAC_NAME>  (1) 
2-amino-6-(hydroxyamino)hexanoic acid

>  <PUBCHEM_IUPAC_SYSTEMATIC_NAME>  (1) 
2-azanyl-6-(oxidanylamino)hexanoic acid

>  <PUBCHEM_IUPAC_TRADITIONAL_NAME>  (1) 
2-amino-6-(hydroxyamino)hexanoic acid

>  <PUBCHEM_IUPAC_INCHI>  (1) 
InChI=1S/C6H14N2O3/c7-5(6(9)10)3-1-2-4-8-11/h5,8,11H,1-4,7H2,(H,9,10)

>  <PUBCHEM_IUPAC_INCHIKEY>  (1) 
FZQOIMPLZAYIKU-UHFFFAOYSA-N

>  <PUBCHEM_XLOGP3>  (1) 
-3

>  <PUBCHEM_EXACT_MASS>  (1) 
162.100442

>  <PUBCHEM_MOLECULAR_FORMULA>  (1) 
C6H14N2O3

>  <PUBCHEM_MOLECULAR_WEIGHT>  (1) 
162.19

>  <PUBCHEM_OPENEYE_CAN_SMILES>  (1) 
C(CCNO)CC(C(=O)O)N

>  <PUBCHEM_OPENEYE_ISO_SMILES>  (1) 
C(CCNO)CC(C(=O)O)N

>  <PUBCHEM_CACTVS_TPSA>  (1) 
95.6

>  <PUBCHEM_MONOISOTOPIC_WEIGHT>  (1) 
162.100442

>  <PUBCHEM_TOTAL_CHARGE>  (1) 
0

>  <PUBCHEM_HEAVY_ATOM_COUNT>  (1) 
11

>  <PUBCHEM_ATOM_DEF_STEREO_COUNT>  (1) 
0

>  <PUBCHEM_ATOM_UDEF_STEREO_COUNT>  (1) 
1

>  <PUBCHEM_BOND_DEF_STEREO_COUNT>  (1) 
0

>  <PUBCHEM_BOND_UDEF_STEREO_COUNT>  (1) 
0

>  <PUBCHEM_ISOTOPIC_ATOM_COUNT>  (1) 
0

>  <PUBCHEM_COMPONENT_COUNT>  (1) 
1

>  <PUBCHEM_CACTVS_TAUTO_COUNT>  (1) 
-1

>  <PUBCHEM_COORDINATE_TYPE>  (1) 
1
5
255

>  <PUBCHEM_BONDANNOTATIONS>  (1) 
9  4  3

$$$$
