406
     RDKit          2D

  4  3  0  0  0  0  0  0  0  0999 V2000
    0.0000    0.0000    0.0000 P   0  0  0  0  0  0  0  0  0  0  0  0
   -1.2990   -0.7500    0.0000 O   0  0  0  0  0  0  0  0  0  0  0  0
    0.0000    1.5000    0.0000 O   0  0  0  0  0  0  0  0  0  0  0  0
    1.2990   -0.7500    0.0000 O   0  0  0  0  0  0  0  0  0  0  0  0
  1  2  1  0
  1  3  1  0
  1  4  2  0
M  CHG  2   2  -1   3  -1
M  END
>  <PUBCHEM_COMPOUND_CID>  (1) 
406

>  <PUBCHEM_COMPOUND_CANONICALIZED>  (1) 
1

>  <PUBCHEM_CACTVS_COMPLEXITY>  (1) 
18.8

>  <PUBCHEM_CACTVS_HBOND_ACCEPTOR>  (1) 
3

>  <PUBCHEM_CACTVS_HBOND_DONOR>  (1) 
0

>  <PUBCHEM_CACTVS_ROTATABLE_BOND>  (1) 
0

>  <PUBCHEM_CACTVS_SUBSKEYS>  (1) 
AAADcQAAMAIAAAAAAAAAAAAAAAAAAAAAAAAAAAAAAAAAAAAAAAAAAAAAACAQAAAAAAAAAAAAABAAQAAAAIAAAAAAAAAAAAAAAAAAAAAAAAAAAAAAAAAAAAAAAAAAAAAAAAAAAAAAAAAAAAAAAAAAAAAAAA==

>  <PUBCHEM_IUPAC_INCHI>  (1) 
InChI=1S/H3O3P/c1-4(2)3/h4H,(H2,1,2,3)/p-2

>  <PUBCHEM_IUPAC_INCHIKEY>  (1) 
ABLZXFCXXLZCGV-UHFFFAOYSA-L

>  <PUBCHEM_XLOGP3_AA>  (1) 
-1.8

>  <PUBCHEM_EXACT_MASS>  (1) 
79.966331

>  <PUBCHEM_MOLECULAR_FORMULA>  (1) 
HO3P-2

>  <PUBCHEM_MOLECULAR_WEIGHT>  (1) 
79.98

>  <PUBCHEM_OPENEYE_CAN_SMILES>  (1) 
[O-]P(=O)[O-]

>  <PUBCHEM_OPENEYE_ISO_SMILES>  (1) 
[O-]P(=O)[O-]

>  <PUBCHEM_CACTVS_TPSA>  (1) 
63.2

>  <PUBCHEM_MONOISOTOPIC_WEIGHT>  (1) 
79.966331

>  <PUBCHEM_TOTAL_CHARGE>  (1) 
-2

>  <PUBCHEM_HEAVY_ATOM_COUNT>  (1) 
4

>  <PUBCHEM_ATOM_DEF_STEREO_COUNT>  (1) 
0

>  <PUBCHEM_ATOM_UDEF_STEREO_COUNT>  (1) 
0

>  <PUBCHEM_BOND_DEF_STEREO_COUNT>  (1) 
0

>  <PUBCHEM_BOND_UDEF_STEREO_COUNT>  (1) 
0

>  <PUBCHEM_ISOTOPIC_ATOM_COUNT>  (1) 
0

>  <PUBCHEM_COMPONENT_COUNT>  (1) 
1

>  <PUBCHEM_CACTVS_TAUTO_COUNT>  (1) 
-1

>  <PUBCHEM_COORDINATE_TYPE>  (1) 
1
5
255

$$$$
