407
     RDKit          2D

  4  3  0  0  0  0  0  0  0  0999 V2000
    0.0000    0.0000    0.0000 P   0  0  0  0  0  0  0  0  0  0  0  0
   -1.2990   -0.7500    0.0000 O   0  0  0  0  0  0  0  0  0  0  0  0
    0.0000    1.5000    0.0000 O   0  0  0  0  0  0  0  0  0  0  0  0
    1.2990   -0.7500    0.0000 O   0  0  0  0  0  0  0  0  0  0  0  0
  1  2  1  0
  1  3  1  0
  1  4  2  0
M  END
>  <PUBCHEM_COMPOUND_CID>  (1) 
407

>  <PUBCHEM_COMPOUND_CANONICALIZED>  (1) 
1

>  <PUBCHEM_CACTVS_COMPLEXITY>  (1) 
26.3

>  <PUBCHEM_CACTVS_HBOND_ACCEPTOR>  (1) 
3

>  <PUBCHEM_CACTVS_HBOND_DONOR>  (1) 
2

>  <PUBCHEM_CACTVS_ROTATABLE_BOND>  (1) 
0

>  <PUBCHEM_CACTVS_SUBSKEYS>  (1) 
AAADcQAAMAIAAAAAAAAAAAAAAAAAAAAAAAAAAAAAAAAAAAAAAAAAAAAACCAQAAAAAAAAAAAAABAAQAAAAIAAAAAAAAAAAAAAAAAAAAAAAAAAAAAAAAAAAAAAAAAAAAAAAAAAAAAAAAAAAAAAAAAAAAAAAA==

>  <PUBCHEM_IUPAC_OPENEYE_NAME>  (1) 
phosphonic acid

>  <PUBCHEM_IUPAC_CAS_NAME>  (1) 
phosphonic acid

>  <PUBCHEM_IUPAC_NAME_MARKUP>  (1) 
phosphonic acid

>  <PUBCHEM_IUPAC_NAME>  (1) 
phosphonic acid

>  <PUBCHEM_IUPAC_SYSTEMATIC_NAME>  (1) 
phosphonic acid

>  <PUBCHEM_IUPAC_TRADITIONAL_NAME>  (1) 
phosphonic acid

>  <PUBCHEM_IUPAC_INCHI>  (1) 
InChI=1S/H3O3P/c1-4(2)3/h4H,(H2,1,2,3)

>  <PUBCHEM_IUPAC_INCHIKEY>  (1) 
ABLZXFCXXLZCGV-UHFFFAOYSA-N

>  <PUBCHEM_XLOGP3_AA>  (1) 
-1.6

>  <PUBCHEM_EXACT_MASS>  (1) 
81.981981

>  <PUBCHEM_MOLECULAR_FORMULA>  (1) 
H3O3P

>  <PUBCHEM_MOLECULAR_WEIGHT>  (1) 
81.996

>  <PUBCHEM_OPENEYE_CAN_SMILES>  (1) 
OP(=O)O

>  <PUBCHEM_OPENEYE_ISO_SMILES>  (1) 
OP(=O)O

>  <PUBCHEM_CACTVS_TPSA>  (1) 
57.5

>  <PUBCHEM_MONOISOTOPIC_WEIGHT>  (1) 
81.981981

>  <PUBCHEM_TOTAL_CHARGE>  (1) 
0

>  <PUBCHEM_HEAVY_ATOM_COUNT>  (1) 
4

>  <PUBCHEM_ATOM_DEF_STEREO_COUNT>  (1) 
0

>  <PUBCHEM_ATOM_UDEF_STEREO_COUNT>  (1) 
0

>  <PUBCHEM_BOND_DEF_STEREO_COUNT>  (1) 
0

>  <PUBCHEM_BOND_UDEF_STEREO_COUNT>  (1) 
0

>  <PUBCHEM_ISOTOPIC_ATOM_COUNT>  (1) 
0

>  <PUBCHEM_COMPONENT_COUNT>  (1) 
1

>  <PUBCHEM_CACTVS_TAUTO_COUNT>  (1) 
-1

>  <PUBCHEM_COORDINATE_TYPE>  (1) 
1
5
255

$$$$
