410
     RDKit          2D

 24 26  0  0  1  0  0  0  0  0999 V2000
    2.4389   -1.0415    0.0000 O   0  0  0  0  0  0  0  0  0  0  0  0
    0.1088    2.1711    0.0000 O   0  0  0  0  0  0  0  0  0  0  0  0
    2.8264    3.4417    0.0000 O   0  0  0  0  0  0  0  0  0  0  0  0
    5.2857    1.7235    0.0000 O   0  0  0  0  0  0  0  0  0  0  0  0
    4.8981   -2.7597    0.0000 O   0  0  0  0  0  0  0  0  0  0  0  0
    6.3861   -0.6300    0.0000 O   0  0  0  0  0  0  0  0  0  0  0  0
   -5.3854   -0.2247    0.0000 N   0  0  0  0  0  0  0  0  0  0  0  0
   -0.1496   -0.8178    0.0000 N   0  0  0  0  0  0  0  0  0  0  0  0
   -3.9676    0.2651    0.0000 C   0  0  0  0  0  0  0  0  0  0  0  0
    1.2092   -0.1824    0.0000 C   0  0  0  0  0  0  0  0  0  0  0  0
    1.3384    1.3120    0.0000 C   0  0  0  0  0  0  0  0  0  0  0  0
   -3.9953    1.7648    0.0000 C   0  0  0  0  0  0  0  0  0  0  0  0
    2.6972    1.9473    0.0000 C   0  0  0  0  0  0  0  0  0  0  0  0
    3.9269    1.0882    0.0000 C   0  0  0  0  0  0  0  0  0  0  0  0
   -5.4302    2.2019    0.0000 C   0  0  0  0  0  0  0  0  0  0  0  0
   -6.2893    0.9723    0.0000 C   0  0  0  0  0  0  0  0  0  0  0  0
    3.7977   -0.4062    0.0000 C   0  0  0  0  0  0  0  0  0  0  0  0
   -2.7380   -0.5940    0.0000 C   0  0  0  0  0  0  0  0  0  0  0  0
   -1.3792    0.0413    0.0000 C   0  0  0  0  0  0  0  0  0  0  0  0
   -5.8225   -1.6596    0.0000 C   0  0  0  0  0  0  0  0  0  0  0  0
   -2.8672   -2.0884    0.0000 C   0  0  0  0  0  0  0  0  0  0  0  0
   -0.2788   -2.3122    0.0000 C   0  0  0  0  0  0  0  0  0  0  0  0
   -1.6376   -2.9475    0.0000 C   0  0  0  0  0  0  0  0  0  0  0  0
    5.0273   -1.2653    0.0000 C   0  0  0  0  0  0  0  0  0  0  0  0
  1 10  1  0
  1 17  1  0
  2 11  1  0
  3 13  1  0
  4 14  1  0
  5 24  1  0
  6 24  2  0
  7  9  1  0
  7 16  1  0
  7 20  1  0
  8 10  1  0
  8 19  2  0
  8 22  1  0
  9 12  1  0
  9 18  1  0
 10 11  1  0
 11 13  1  0
 12 15  1  0
 13 14  1  0
 14 17  1  0
 15 16  1  0
 17 24  1  0
 18 19  1  0
 18 21  2  0
 21 23  1  0
 22 23  2  0
M  CHG  1   8   1
M  END
>  <PUBCHEM_COMPOUND_CID>  (1) 
410

>  <PUBCHEM_COMPOUND_CANONICALIZED>  (1) 
1

>  <PUBCHEM_CACTVS_COMPLEXITY>  (1) 
464

>  <PUBCHEM_CACTVS_HBOND_ACCEPTOR>  (1) 
7

>  <PUBCHEM_CACTVS_HBOND_DONOR>  (1) 
4

>  <PUBCHEM_CACTVS_ROTATABLE_BOND>  (1) 
3

>  <PUBCHEM_CACTVS_SUBSKEYS>  (1) 
AAADceB7OAAAAAAAAAAAAAAAAAAAAWAAAAAsSAAAAAAAAAABgAAAHgAACAAADDzhmgY+iJMMFgCoAjD3TAKCgCAxAiAI2CF4ZJgLMPbA0ZWOYAhnoADbyAf6/IZOAAAAAAAAAAAAAAAAAAAAAAAAAAAAAA==

>  <PUBCHEM_IUPAC_OPENEYE_NAME>  (1) 
3,4,5-trihydroxy-6-[3-(1-methylpyrrolidin-2-yl)pyridin-1-ium-1-yl]tetrahydropyran-2-carboxylic acid

>  <PUBCHEM_IUPAC_CAS_NAME>  (1) 
3,4,5-trihydroxy-6-[3-(1-methyl-2-pyrrolidinyl)-1-pyridin-1-iumyl]-2-oxanecarboxylic acid

>  <PUBCHEM_IUPAC_NAME_MARKUP>  (1) 
3,4,5-trihydroxy-6-[3-(1-methylpyrrolidin-2-yl)pyridin-1-ium-1-yl]oxane-2-carboxylic acid

>  <PUBCHEM_IUPAC_NAME>  (1) 
3,4,5-trihydroxy-6-[3-(1-methylpyrrolidin-2-yl)pyridin-1-ium-1-yl]oxane-2-carboxylic acid

>  <PUBCHEM_IUPAC_SYSTEMATIC_NAME>  (1) 
6-[3-(1-methylpyrrolidin-2-yl)pyridin-1-ium-1-yl]-3,4,5-tris(oxidanyl)oxane-2-carboxylic acid

>  <PUBCHEM_IUPAC_TRADITIONAL_NAME>  (1) 
3,4,5-trihydroxy-6-[3-(1-methylpyrrolidin-2-yl)pyridin-1-ium-1-yl]tetrahydropyran-2-carboxylic acid

>  <PUBCHEM_IUPAC_INCHI>  (1) 
InChI=1S/C16H22N2O6/c1-17-6-3-5-10(17)9-4-2-7-18(8-9)15-13(21)11(19)12(20)14(24-15)16(22)23/h2,4,7-8,10-15,19-21H,3,5-6H2,1H3/p+1

>  <PUBCHEM_IUPAC_INCHIKEY>  (1) 
SAWAIULJDYFLPD-UHFFFAOYSA-O

>  <PUBCHEM_XLOGP3_AA>  (1) 
-2.9

>  <PUBCHEM_EXACT_MASS>  (1) 
339.155611

>  <PUBCHEM_MOLECULAR_FORMULA>  (1) 
C16H23N2O6+

>  <PUBCHEM_MOLECULAR_WEIGHT>  (1) 
339.36

>  <PUBCHEM_OPENEYE_CAN_SMILES>  (1) 
CN1CCCC1C2=C[N+](=CC=C2)C3C(C(C(C(O3)C(=O)O)O)O)O

>  <PUBCHEM_OPENEYE_ISO_SMILES>  (1) 
CN1CCCC1C2=C[N+](=CC=C2)C3C(C(C(C(O3)C(=O)O)O)O)O

>  <PUBCHEM_CACTVS_TPSA>  (1) 
114

>  <PUBCHEM_MONOISOTOPIC_WEIGHT>  (1) 
339.155611

>  <PUBCHEM_TOTAL_CHARGE>  (1) 
1

>  <PUBCHEM_HEAVY_ATOM_COUNT>  (1) 
24

>  <PUBCHEM_ATOM_DEF_STEREO_COUNT>  (1) 
0

>  <PUBCHEM_ATOM_UDEF_STEREO_COUNT>  (1) 
6

>  <PUBCHEM_BOND_DEF_STEREO_COUNT>  (1) 
0

>  <PUBCHEM_BOND_UDEF_STEREO_COUNT>  (1) 
0

>  <PUBCHEM_ISOTOPIC_ATOM_COUNT>  (1) 
0

>  <PUBCHEM_COMPONENT_COUNT>  (1) 
1

>  <PUBCHEM_CACTVS_TAUTO_COUNT>  (1) 
-1

>  <PUBCHEM_COORDINATE_TYPE>  (1) 
1
5
255

>  <PUBCHEM_BONDANNOTATIONS>  (1) 
17  24  3
18  19  8
18  21  8
11  2  3
21  23  8
22  23  8
13  3  3
14  4  3
10  8  3
8  19  8
8  22  8
9  18  3

$$$$
