412
     RDKit          2D

 11 12  0  0  1  0  0  0  0  0999 V2000
   -1.9381   -1.2135    0.0000 N   0  0  0  0  0  0  0  0  0  0  0  0
    2.6936   -1.2990    0.0000 N   0  0  0  0  0  0  0  0  0  0  0  0
   -1.0564   -0.0000    0.0000 C   0  0  0  0  0  0  0  0  0  0  0  0
   -1.9381    1.2135    0.0000 C   0  0  0  0  0  0  0  0  0  0  0  0
   -3.3646    0.7500    0.0000 C   0  0  0  0  0  0  0  0  0  0  0  0
   -3.3646   -0.7500    0.0000 C   0  0  0  0  0  0  0  0  0  0  0  0
    0.4436   -0.0000    0.0000 C   0  0  0  0  0  0  0  0  0  0  0  0
    1.1936    1.2990    0.0000 C   0  0  0  0  0  0  0  0  0  0  0  0
    1.1936   -1.2990    0.0000 C   0  0  0  0  0  0  0  0  0  0  0  0
    2.6936    1.2990    0.0000 C   0  0  0  0  0  0  0  0  0  0  0  0
    3.4436    0.0000    0.0000 C   0  0  0  0  0  0  0  0  0  0  0  0
  1  3  1  0
  1  6  1  0
  2  9  2  0
  2 11  1  0
  3  4  1  0
  3  7  1  0
  4  5  1  0
  5  6  1  0
  7  8  2  0
  7  9  1  0
  8 10  1  0
 10 11  2  0
M  END
>  <PUBCHEM_COMPOUND_CID>  (1) 
412

>  <PUBCHEM_COMPOUND_CANONICALIZED>  (1) 
1

>  <PUBCHEM_CACTVS_COMPLEXITY>  (1) 
125

>  <PUBCHEM_CACTVS_HBOND_ACCEPTOR>  (1) 
2

>  <PUBCHEM_CACTVS_HBOND_DONOR>  (1) 
1

>  <PUBCHEM_CACTVS_ROTATABLE_BOND>  (1) 
1

>  <PUBCHEM_CACTVS_SUBSKEYS>  (1) 
AAADccBzAAAAAAAAAAAAAAAAAAAAAWAAAAAsAAAAAAAAAAABgAAAHAAQAAAADCjBGgQ8gJLIEACgAjBnRACCgCAxAiAI2KA4ZJgIIOLA0ZGEIAhgkADIyAcQgIAOAAAAAAAAAAAAAAAAAAAAAAAAAAAAAA==

>  <PUBCHEM_IUPAC_OPENEYE_NAME>  (1) 
3-pyrrolidin-2-ylpyridine

>  <PUBCHEM_IUPAC_CAS_NAME>  (1) 
3-(2-pyrrolidinyl)pyridine

>  <PUBCHEM_IUPAC_NAME_MARKUP>  (1) 
3-pyrrolidin-2-ylpyridine

>  <PUBCHEM_IUPAC_NAME>  (1) 
3-pyrrolidin-2-ylpyridine

>  <PUBCHEM_IUPAC_SYSTEMATIC_NAME>  (1) 
3-pyrrolidin-2-ylpyridine

>  <PUBCHEM_IUPAC_TRADITIONAL_NAME>  (1) 
3-pyrrolidin-2-ylpyridine

>  <PUBCHEM_IUPAC_INCHI>  (1) 
InChI=1S/C9H12N2/c1-3-8(7-10-5-1)9-4-2-6-11-9/h1,3,5,7,9,11H,2,4,6H2

>  <PUBCHEM_IUPAC_INCHIKEY>  (1) 
MYKUKUCHPMASKF-UHFFFAOYSA-N

>  <PUBCHEM_XLOGP3>  (1) 
0.2

>  <PUBCHEM_EXACT_MASS>  (1) 
148.100048

>  <PUBCHEM_MOLECULAR_FORMULA>  (1) 
C9H12N2

>  <PUBCHEM_MOLECULAR_WEIGHT>  (1) 
148.2

>  <PUBCHEM_OPENEYE_CAN_SMILES>  (1) 
C1CC(NC1)C2=CN=CC=C2

>  <PUBCHEM_OPENEYE_ISO_SMILES>  (1) 
C1CC(NC1)C2=CN=CC=C2

>  <PUBCHEM_CACTVS_TPSA>  (1) 
24.9

>  <PUBCHEM_MONOISOTOPIC_WEIGHT>  (1) 
148.100048

>  <PUBCHEM_TOTAL_CHARGE>  (1) 
0

>  <PUBCHEM_HEAVY_ATOM_COUNT>  (1) 
11

>  <PUBCHEM_ATOM_DEF_STEREO_COUNT>  (1) 
0

>  <PUBCHEM_ATOM_UDEF_STEREO_COUNT>  (1) 
1

>  <PUBCHEM_BOND_DEF_STEREO_COUNT>  (1) 
0

>  <PUBCHEM_BOND_UDEF_STEREO_COUNT>  (1) 
0

>  <PUBCHEM_ISOTOPIC_ATOM_COUNT>  (1) 
0

>  <PUBCHEM_COMPONENT_COUNT>  (1) 
1

>  <PUBCHEM_CACTVS_TAUTO_COUNT>  (1) 
-1

>  <PUBCHEM_COORDINATE_TYPE>  (1) 
1
5
255

>  <PUBCHEM_BONDANNOTATIONS>  (1) 
10  11  8
2  11  8
2  9  8
3  7  3
7  8  8
7  9  8
8  10  8

$$$$
