414
     RDKit          2D

 14 15  0  0  1  0  0  0  0  0999 V2000
   -3.7712    1.9169    0.0000 O   0  0  0  0  0  0  0  0  0  0  0  0
   -3.8543   -1.3454    0.0000 O   0  0  0  0  0  0  0  0  0  0  0  0
   -1.2044   -0.9946    0.0000 N   0  0  0  0  0  0  0  0  0  0  0  0
    3.4236   -1.1980    0.0000 N   0  0  0  0  0  0  0  0  0  0  0  0
   -0.2921    0.1961    0.0000 C   0  0  0  0  0  0  0  0  0  0  0  0
   -1.1426    1.4317    0.0000 C   0  0  0  0  0  0  0  0  0  0  0  0
   -2.5805    1.0046    0.0000 C   0  0  0  0  0  0  0  0  0  0  0  0
   -2.6187   -0.4949    0.0000 C   0  0  0  0  0  0  0  0  0  0  0  0
    1.2074    0.1579    0.0000 C   0  0  0  0  0  0  0  0  0  0  0  0
   -0.7774   -2.4325    0.0000 C   0  0  0  0  0  0  0  0  0  0  0  0
    1.9902    1.4374    0.0000 C   0  0  0  0  0  0  0  0  0  0  0  0
    1.9241   -1.1598    0.0000 C   0  0  0  0  0  0  0  0  0  0  0  0
    3.4897    1.3992    0.0000 C   0  0  0  0  0  0  0  0  0  0  0  0
    4.2064    0.0815    0.0000 C   0  0  0  0  0  0  0  0  0  0  0  0
  1  7  1  0
  2  8  2  0
  3  5  1  0
  3  8  1  0
  3 10  1  0
  4 12  2  0
  4 14  1  0
  5  6  1  0
  5  9  1  0
  6  7  1  0
  7  8  1  0
  9 11  2  0
  9 12  1  0
 11 13  1  0
 13 14  2  0
M  END
>  <PUBCHEM_COMPOUND_CID>  (1) 
414

>  <PUBCHEM_COMPOUND_CANONICALIZED>  (1) 
1

>  <PUBCHEM_CACTVS_COMPLEXITY>  (1) 
232

>  <PUBCHEM_CACTVS_HBOND_ACCEPTOR>  (1) 
3

>  <PUBCHEM_CACTVS_HBOND_DONOR>  (1) 
1

>  <PUBCHEM_CACTVS_ROTATABLE_BOND>  (1) 
1

>  <PUBCHEM_CACTVS_SUBSKEYS>  (1) 
AAADccBzMAAAAAAAAAAAAAAAAAAAAWAAAAAsAAAAAAAAAAABgAAAHgAACAAADDzhmgY+gJMIEgCoAjF3VAKCgCAxAiAI2CF4ZJgKMPLA0ZGEYAhmhgDYyAec2KKOAAAAAAAAAAAAAAAAAAAAAAAAAAAAAA==

>  <PUBCHEM_IUPAC_OPENEYE_NAME>  (1) 
3-hydroxy-1-methyl-5-(3-pyridyl)pyrrolidin-2-one

>  <PUBCHEM_IUPAC_CAS_NAME>  (1) 
3-hydroxy-1-methyl-5-(3-pyridinyl)-2-pyrrolidinone

>  <PUBCHEM_IUPAC_NAME_MARKUP>  (1) 
3-hydroxy-1-methyl-5-pyridin-3-ylpyrrolidin-2-one

>  <PUBCHEM_IUPAC_NAME>  (1) 
3-hydroxy-1-methyl-5-pyridin-3-ylpyrrolidin-2-one

>  <PUBCHEM_IUPAC_SYSTEMATIC_NAME>  (1) 
1-methyl-3-oxidanyl-5-pyridin-3-yl-pyrrolidin-2-one

>  <PUBCHEM_IUPAC_TRADITIONAL_NAME>  (1) 
3-hydroxy-1-methyl-5-(3-pyridyl)-2-pyrrolidone

>  <PUBCHEM_IUPAC_INCHI>  (1) 
InChI=1S/C10H12N2O2/c1-12-8(5-9(13)10(12)14)7-3-2-4-11-6-7/h2-4,6,8-9,13H,5H2,1H3

>  <PUBCHEM_IUPAC_INCHIKEY>  (1) 
XOKCJXZZNAUIQN-UHFFFAOYSA-N

>  <PUBCHEM_XLOGP3>  (1) 
-0.9

>  <PUBCHEM_EXACT_MASS>  (1) 
192.089878

>  <PUBCHEM_MOLECULAR_FORMULA>  (1) 
C10H12N2O2

>  <PUBCHEM_MOLECULAR_WEIGHT>  (1) 
192.21

>  <PUBCHEM_OPENEYE_CAN_SMILES>  (1) 
CN1C(CC(C1=O)O)C2=CN=CC=C2

>  <PUBCHEM_OPENEYE_ISO_SMILES>  (1) 
CN1C(CC(C1=O)O)C2=CN=CC=C2

>  <PUBCHEM_CACTVS_TPSA>  (1) 
53.4

>  <PUBCHEM_MONOISOTOPIC_WEIGHT>  (1) 
192.089878

>  <PUBCHEM_TOTAL_CHARGE>  (1) 
0

>  <PUBCHEM_HEAVY_ATOM_COUNT>  (1) 
14

>  <PUBCHEM_ATOM_DEF_STEREO_COUNT>  (1) 
0

>  <PUBCHEM_ATOM_UDEF_STEREO_COUNT>  (1) 
2

>  <PUBCHEM_BOND_DEF_STEREO_COUNT>  (1) 
0

>  <PUBCHEM_BOND_UDEF_STEREO_COUNT>  (1) 
0

>  <PUBCHEM_ISOTOPIC_ATOM_COUNT>  (1) 
0

>  <PUBCHEM_COMPONENT_COUNT>  (1) 
1

>  <PUBCHEM_CACTVS_TAUTO_COUNT>  (1) 
-1

>  <PUBCHEM_COORDINATE_TYPE>  (1) 
1
5
255

>  <PUBCHEM_BONDANNOTATIONS>  (1) 
7  1  3
11  13  8
13  14  8
4  12  8
4  14  8
5  9  3
9  11  8
9  12  8

$$$$
