415
     RDKit          2D

 14 15  0  0  1  0  0  0  0  0999 V2000
   -0.2242   -1.6818    0.0000 O   0  0  0  0  0  0  0  0  0  0  0  0
   -4.3300    0.5619    0.0000 O   0  0  0  0  0  0  0  0  0  0  0  0
   -1.9562   -0.6669    0.0000 N   0  0  0  0  0  0  0  0  0  0  0  0
    3.3327   -1.1375    0.0000 N   0  0  0  0  0  0  0  0  0  0  0  0
   -0.5266   -0.2126    0.0000 C   0  0  0  0  0  0  0  0  0  0  0  0
   -0.5170    1.2873    0.0000 C   0  0  0  0  0  0  0  0  0  0  0  0
   -1.9405    1.7601    0.0000 C   0  0  0  0  0  0  0  0  0  0  0  0
   -2.8300    0.5522    0.0000 C   0  0  0  0  0  0  0  0  0  0  0  0
    0.9661   -0.0655    0.0000 C   0  0  0  0  0  0  0  0  0  0  0  0
   -2.4289   -2.0905    0.0000 C   0  0  0  0  0  0  0  0  0  0  0  0
    1.5851    1.3009    0.0000 C   0  0  0  0  0  0  0  0  0  0  0  0
    1.8400   -1.2846    0.0000 C   0  0  0  0  0  0  0  0  0  0  0  0
    3.0778    1.4481    0.0000 C   0  0  0  0  0  0  0  0  0  0  0  0
    3.9517    0.2289    0.0000 C   0  0  0  0  0  0  0  0  0  0  0  0
  1  5  1  0
  2  8  2  0
  3  5  1  0
  3  8  1  0
  3 10  1  0
  4 12  2  0
  4 14  1  0
  5  6  1  0
  5  9  1  0
  6  7  1  0
  7  8  1  0
  9 11  2  0
  9 12  1  0
 11 13  1  0
 13 14  2  0
M  END
>  <PUBCHEM_COMPOUND_CID>  (1) 
415

>  <PUBCHEM_COMPOUND_CANONICALIZED>  (1) 
1

>  <PUBCHEM_CACTVS_COMPLEXITY>  (1) 
244

>  <PUBCHEM_CACTVS_HBOND_ACCEPTOR>  (1) 
3

>  <PUBCHEM_CACTVS_HBOND_DONOR>  (1) 
1

>  <PUBCHEM_CACTVS_ROTATABLE_BOND>  (1) 
1

>  <PUBCHEM_CACTVS_SUBSKEYS>  (1) 
AAADccBzMAAAAAAAAAAAAAAAAAAAAWAAAAAsAAAAAAAAAAABgAAAHgAACAAADAzBmgQ+gJMIEgCoAjF3VACCgCAxAiAI2CE4bJgIJvLA0ZGEcAhmxgHI2Ae+mIKOAAAAAAAAAAAAAAAAAAAAAAAAAAAAAA==

>  <PUBCHEM_IUPAC_OPENEYE_NAME>  (1) 
5-hydroxy-1-methyl-5-(3-pyridyl)pyrrolidin-2-one

>  <PUBCHEM_IUPAC_CAS_NAME>  (1) 
5-hydroxy-1-methyl-5-(3-pyridinyl)-2-pyrrolidinone

>  <PUBCHEM_IUPAC_NAME_MARKUP>  (1) 
5-hydroxy-1-methyl-5-pyridin-3-ylpyrrolidin-2-one

>  <PUBCHEM_IUPAC_NAME>  (1) 
5-hydroxy-1-methyl-5-pyridin-3-ylpyrrolidin-2-one

>  <PUBCHEM_IUPAC_SYSTEMATIC_NAME>  (1) 
1-methyl-5-oxidanyl-5-pyridin-3-yl-pyrrolidin-2-one

>  <PUBCHEM_IUPAC_TRADITIONAL_NAME>  (1) 
5-hydroxy-1-methyl-5-(3-pyridyl)-2-pyrrolidone

>  <PUBCHEM_IUPAC_INCHI>  (1) 
InChI=1S/C10H12N2O2/c1-12-9(13)4-5-10(12,14)8-3-2-6-11-7-8/h2-3,6-7,14H,4-5H2,1H3

>  <PUBCHEM_IUPAC_INCHIKEY>  (1) 
BBNHNZGTKSWIHD-UHFFFAOYSA-N

>  <PUBCHEM_XLOGP3_AA>  (1) 
-0.5

>  <PUBCHEM_EXACT_MASS>  (1) 
192.089878

>  <PUBCHEM_MOLECULAR_FORMULA>  (1) 
C10H12N2O2

>  <PUBCHEM_MOLECULAR_WEIGHT>  (1) 
192.21

>  <PUBCHEM_OPENEYE_CAN_SMILES>  (1) 
CN1C(=O)CCC1(C2=CN=CC=C2)O

>  <PUBCHEM_OPENEYE_ISO_SMILES>  (1) 
CN1C(=O)CCC1(C2=CN=CC=C2)O

>  <PUBCHEM_CACTVS_TPSA>  (1) 
53.4

>  <PUBCHEM_MONOISOTOPIC_WEIGHT>  (1) 
192.089878

>  <PUBCHEM_TOTAL_CHARGE>  (1) 
0

>  <PUBCHEM_HEAVY_ATOM_COUNT>  (1) 
14

>  <PUBCHEM_ATOM_DEF_STEREO_COUNT>  (1) 
0

>  <PUBCHEM_ATOM_UDEF_STEREO_COUNT>  (1) 
1

>  <PUBCHEM_BOND_DEF_STEREO_COUNT>  (1) 
0

>  <PUBCHEM_BOND_UDEF_STEREO_COUNT>  (1) 
0

>  <PUBCHEM_ISOTOPIC_ATOM_COUNT>  (1) 
0

>  <PUBCHEM_COMPONENT_COUNT>  (1) 
1

>  <PUBCHEM_CACTVS_TAUTO_COUNT>  (1) 
-1

>  <PUBCHEM_COORDINATE_TYPE>  (1) 
1
5
255

>  <PUBCHEM_BONDANNOTATIONS>  (1) 
5  1  3
11  13  8
13  14  8
4  12  8
4  14  8
9  11  8
9  12  8

$$$$
