42
     RDKit          2D

 15 14  0  0  0  0  0  0  0  0999 V2000
   -1.4350   -1.8790    0.0000 O   0  0  0  0  0  0  0  0  0  0  0  0
   -6.6601   -0.4831    0.0000 O   0  0  0  0  0  0  0  0  0  0  0  0
   -5.4062    1.7924    0.0000 O   0  0  0  0  0  0  0  0  0  0  0  0
    3.7601   -1.7752    0.0000 O   0  0  0  0  0  0  0  0  0  0  0  0
    6.3277   -0.2236    0.0000 O   0  0  0  0  0  0  0  0  0  0  0  0
    4.9840    2.0000    0.0000 O   0  0  0  0  0  0  0  0  0  0  0  0
   -2.7787    0.3446    0.0000 C   0  0  0  0  0  0  0  0  0  0  0  0
   -4.0625   -0.4312    0.0000 C   0  0  0  0  0  0  0  0  0  0  0  0
   -1.4650   -0.3793    0.0000 C   0  0  0  0  0  0  0  0  0  0  0  0
   -0.1812    0.3965    0.0000 C   0  0  0  0  0  0  0  0  0  0  0  0
   -5.3763    0.2927    0.0000 C   0  0  0  0  0  0  0  0  0  0  0  0
    1.1326   -0.3274    0.0000 C   0  0  0  0  0  0  0  0  0  0  0  0
    2.4164    0.4484    0.0000 C   0  0  0  0  0  0  0  0  0  0  0  0
    3.7302   -0.2755    0.0000 C   0  0  0  0  0  0  0  0  0  0  0  0
    5.0140    0.5003    0.0000 C   0  0  0  0  0  0  0  0  0  0  0  0
  1  9  2  0
  2 11  1  0
  3 11  2  0
  4 14  1  0
  5 15  1  0
  6 15  2  0
  7  8  1  0
  7  9  1  0
  8 11  1  0
  9 10  1  0
 10 12  2  3
 12 13  1  0
 13 14  2  3
 14 15  1  0
M  END
>  <PUBCHEM_COMPOUND_CID>  (1) 
42

>  <PUBCHEM_COMPOUND_CANONICALIZED>  (1) 
1

>  <PUBCHEM_CACTVS_COMPLEXITY>  (1) 
326

>  <PUBCHEM_CACTVS_HBOND_ACCEPTOR>  (1) 
6

>  <PUBCHEM_CACTVS_HBOND_DONOR>  (1) 
3

>  <PUBCHEM_CACTVS_ROTATABLE_BOND>  (1) 
6

>  <PUBCHEM_CACTVS_SUBSKEYS>  (1) 
AAADccBwOAAAAAAAAAAAAAAAAAAAAAAAAAAAAAAAAAAAAAAAAAAAGgAACAAACASAgAAACAAAAgCIAKDSCAIAAAAgIAAICAFAAEgJBBIAAQAAUAAEgAAJkYKLAAAAAAAAAAAAAAAAAAAAAAAAAAAAAAAAAA==

>  <PUBCHEM_IUPAC_OPENEYE_NAME>  (1) 
2-hydroxy-6-oxo-nona-2,4-dienedioic acid

>  <PUBCHEM_IUPAC_CAS_NAME>  (1) 
2-hydroxy-6-oxonona-2,4-dienedioic acid

>  <PUBCHEM_IUPAC_NAME_MARKUP>  (1) 
2-hydroxy-6-oxonona-2,4-dienedioic acid

>  <PUBCHEM_IUPAC_NAME>  (1) 
2-hydroxy-6-oxonona-2,4-dienedioic acid

>  <PUBCHEM_IUPAC_SYSTEMATIC_NAME>  (1) 
2-oxidanyl-6-oxidanylidene-nona-2,4-dienedioic acid

>  <PUBCHEM_IUPAC_TRADITIONAL_NAME>  (1) 
2-hydroxy-6-keto-nona-2,4-dienedioic acid

>  <PUBCHEM_IUPAC_INCHI>  (1) 
InChI=1S/C9H10O6/c10-6(4-5-8(12)13)2-1-3-7(11)9(14)15/h1-3,11H,4-5H2,(H,12,13)(H,14,15)

>  <PUBCHEM_IUPAC_INCHIKEY>  (1) 
RFENOVFRMPRRJI-UHFFFAOYSA-N

>  <PUBCHEM_XLOGP3_AA>  (1) 
-0.4

>  <PUBCHEM_EXACT_MASS>  (1) 
214.047738

>  <PUBCHEM_MOLECULAR_FORMULA>  (1) 
C9H10O6

>  <PUBCHEM_MOLECULAR_WEIGHT>  (1) 
214.17

>  <PUBCHEM_OPENEYE_CAN_SMILES>  (1) 
C(CC(=O)O)C(=O)C=CC=C(C(=O)O)O

>  <PUBCHEM_OPENEYE_ISO_SMILES>  (1) 
C(CC(=O)O)C(=O)C=CC=C(C(=O)O)O

>  <PUBCHEM_CACTVS_TPSA>  (1) 
112

>  <PUBCHEM_MONOISOTOPIC_WEIGHT>  (1) 
214.047738

>  <PUBCHEM_TOTAL_CHARGE>  (1) 
0

>  <PUBCHEM_HEAVY_ATOM_COUNT>  (1) 
15

>  <PUBCHEM_ATOM_DEF_STEREO_COUNT>  (1) 
0

>  <PUBCHEM_ATOM_UDEF_STEREO_COUNT>  (1) 
0

>  <PUBCHEM_BOND_DEF_STEREO_COUNT>  (1) 
0

>  <PUBCHEM_BOND_UDEF_STEREO_COUNT>  (1) 
2

>  <PUBCHEM_ISOTOPIC_ATOM_COUNT>  (1) 
0

>  <PUBCHEM_COMPONENT_COUNT>  (1) 
1

>  <PUBCHEM_CACTVS_TAUTO_COUNT>  (1) 
-1

>  <PUBCHEM_COORDINATE_TYPE>  (1) 
1
5
255

>  <PUBCHEM_BONDANNOTATIONS>  (1) 
10  12  1
13  14  1

$$$$
