425
     RDKit          2D

 19 20  0  0  0  0  0  0  0  0999 V2000
    3.7577   -2.4506    0.0000 O   0  0  0  0  0  0  0  0  0  0  0  0
    6.1156    2.1798    0.0000 O   0  0  0  0  0  0  0  0  0  0  0  0
    1.1632   -2.5872    0.0000 O   0  0  0  0  0  0  0  0  0  0  0  0
   -6.8569    1.4968    0.0000 O   0  0  0  0  0  0  0  0  0  0  0  0
    2.3421   -0.2720    0.0000 C   0  0  0  0  0  0  0  0  0  0  0  0
   -2.8468   -0.5452    0.0000 C   0  0  0  0  0  0  0  0  0  0  0  0
    3.6788   -0.9526    0.0000 C   0  0  0  0  0  0  0  0  0  0  0  0
    1.0843   -1.0892    0.0000 C   0  0  0  0  0  0  0  0  0  0  0  0
    2.2633    1.2260    0.0000 C   0  0  0  0  0  0  0  0  0  0  0  0
   -1.5102   -1.2258    0.0000 C   0  0  0  0  0  0  0  0  0  0  0  0
   -0.2523   -0.4086    0.0000 C   0  0  0  0  0  0  0  0  0  0  0  0
    4.9366   -0.1354    0.0000 C   0  0  0  0  0  0  0  0  0  0  0  0
    3.5211    2.0432    0.0000 C   0  0  0  0  0  0  0  0  0  0  0  0
    4.8577    1.3626    0.0000 C   0  0  0  0  0  0  0  0  0  0  0  0
   -2.9257    0.9528    0.0000 C   0  0  0  0  0  0  0  0  0  0  0  0
   -4.1046   -1.3624    0.0000 C   0  0  0  0  0  0  0  0  0  0  0  0
   -4.2624    1.6334    0.0000 C   0  0  0  0  0  0  0  0  0  0  0  0
   -5.4413   -0.6818    0.0000 C   0  0  0  0  0  0  0  0  0  0  0  0
   -5.5202    0.8162    0.0000 C   0  0  0  0  0  0  0  0  0  0  0  0
  1  7  1  0
  2 14  1  0
  3  8  2  0
  4 19  1  0
  5  7  2  0
  5  8  1  0
  5  9  1  0
  6 10  1  0
  6 15  2  0
  6 16  1  0
  7 12  1  0
  8 11  1  0
  9 13  2  0
 10 11  2  3
 12 14  2  0
 13 14  1  0
 15 17  1  0
 16 18  2  0
 17 19  2  0
 18 19  1  0
M  END
>  <PUBCHEM_COMPOUND_CID>  (1) 
425

>  <PUBCHEM_COMPOUND_CANONICALIZED>  (1) 
1

>  <PUBCHEM_CACTVS_COMPLEXITY>  (1) 
331

>  <PUBCHEM_CACTVS_HBOND_ACCEPTOR>  (1) 
4

>  <PUBCHEM_CACTVS_HBOND_DONOR>  (1) 
3

>  <PUBCHEM_CACTVS_ROTATABLE_BOND>  (1) 
3

>  <PUBCHEM_CACTVS_SUBSKEYS>  (1) 
AAADccBwOAAAAAAAAAAAAAAAAAAAAAAAAAAwYAAAAAAAAAABQAAAGgAACAAADASAmAAwBoAAAgCIAqBSAAACAAAkIAAIiAEGCMgIJzaCFRKAcUAl4BUImYeI7KTOIAAACAAIAABAAAAQABAAAAAAAAAAAA==

>  <PUBCHEM_IUPAC_OPENEYE_NAME>  (1) 
1-(2,4-dihydroxyphenyl)-3-(4-hydroxyphenyl)prop-2-en-1-one

>  <PUBCHEM_IUPAC_CAS_NAME>  (1) 
1-(2,4-dihydroxyphenyl)-3-(4-hydroxyphenyl)-2-propen-1-one

>  <PUBCHEM_IUPAC_NAME_MARKUP>  (1) 
1-(2,4-dihydroxyphenyl)-3-(4-hydroxyphenyl)prop-2-en-1-one

>  <PUBCHEM_IUPAC_NAME>  (1) 
1-(2,4-dihydroxyphenyl)-3-(4-hydroxyphenyl)prop-2-en-1-one

>  <PUBCHEM_IUPAC_SYSTEMATIC_NAME>  (1) 
1-[2,4-bis(oxidanyl)phenyl]-3-(4-hydroxyphenyl)prop-2-en-1-one

>  <PUBCHEM_IUPAC_TRADITIONAL_NAME>  (1) 
1-(2,4-dihydroxyphenyl)-3-(4-hydroxyphenyl)prop-2-en-1-one

>  <PUBCHEM_IUPAC_INCHI>  (1) 
InChI=1S/C15H12O4/c16-11-4-1-10(2-5-11)3-8-14(18)13-7-6-12(17)9-15(13)19/h1-9,16-17,19H

>  <PUBCHEM_IUPAC_INCHIKEY>  (1) 
DXDRHHKMWQZJHT-UHFFFAOYSA-N

>  <PUBCHEM_XLOGP3_AA>  (1) 
3.2

>  <PUBCHEM_EXACT_MASS>  (1) 
256.073559

>  <PUBCHEM_MOLECULAR_FORMULA>  (1) 
C15H12O4

>  <PUBCHEM_MOLECULAR_WEIGHT>  (1) 
256.25

>  <PUBCHEM_OPENEYE_CAN_SMILES>  (1) 
C1=CC(=CC=C1C=CC(=O)C2=C(C=C(C=C2)O)O)O

>  <PUBCHEM_OPENEYE_ISO_SMILES>  (1) 
C1=CC(=CC=C1C=CC(=O)C2=C(C=C(C=C2)O)O)O

>  <PUBCHEM_CACTVS_TPSA>  (1) 
77.8

>  <PUBCHEM_MONOISOTOPIC_WEIGHT>  (1) 
256.073559

>  <PUBCHEM_TOTAL_CHARGE>  (1) 
0

>  <PUBCHEM_HEAVY_ATOM_COUNT>  (1) 
19

>  <PUBCHEM_ATOM_DEF_STEREO_COUNT>  (1) 
0

>  <PUBCHEM_ATOM_UDEF_STEREO_COUNT>  (1) 
0

>  <PUBCHEM_BOND_DEF_STEREO_COUNT>  (1) 
0

>  <PUBCHEM_BOND_UDEF_STEREO_COUNT>  (1) 
1

>  <PUBCHEM_ISOTOPIC_ATOM_COUNT>  (1) 
0

>  <PUBCHEM_COMPONENT_COUNT>  (1) 
1

>  <PUBCHEM_CACTVS_TAUTO_COUNT>  (1) 
-1

>  <PUBCHEM_COORDINATE_TYPE>  (1) 
1
5
255

>  <PUBCHEM_BONDANNOTATIONS>  (1) 
10  11  1
12  14  8
13  14  8
15  17  8
16  18  8
17  19  8
18  19  8
5  7  8
5  9  8
6  15  8
6  16  8
7  12  8
9  13  8

$$$$
