429
     RDKit          2D

 27 29  0  0  1  0  0  0  0  0999 V2000
   -2.1695    0.5180    0.0000 O   0  0  0  0  0  0  0  0  0  0  0  0
   -2.6866   -3.4168    0.0000 O   0  0  0  0  0  0  0  0  0  0  0  0
   -4.7144   -0.0053    0.0000 O   0  0  0  0  0  0  0  0  0  0  0  0
    5.7671    0.6188    0.0000 O   0  0  0  0  0  0  0  0  0  0  0  0
   -6.9570   -1.9979    0.0000 O   0  0  0  0  0  0  0  0  0  0  0  0
    4.1287   -4.3123    0.0000 O   0  0  0  0  0  0  0  0  0  0  0  0
    0.6774   -0.4279    0.0000 N   0  0  0  0  0  0  0  0  0  0  0  0
    2.9201    1.5647    0.0000 N   0  0  0  0  0  0  0  0  0  0  0  0
    2.4031   -2.3701    0.0000 N   0  0  0  0  0  0  0  0  0  0  0  0
    4.9479   -1.8467    0.0000 N   0  0  0  0  0  0  0  0  0  0  0  0
   -0.4439   -1.4242    0.0000 C   0  0  0  0  0  0  0  0  0  0  0  0
   -1.8674   -0.9512    0.0000 C   0  0  0  0  0  0  0  0  0  0  0  0
    3.2222    0.0955    0.0000 C   0  0  0  0  0  0  0  0  0  0  0  0
    0.3753    1.0414    0.0000 C   0  0  0  0  0  0  0  0  0  0  0  0
    2.1009   -0.9008    0.0000 C   0  0  0  0  0  0  0  0  0  0  0  0
   -2.9887   -1.9475    0.0000 C   0  0  0  0  0  0  0  0  0  0  0  0
    1.4966    2.0377    0.0000 C   0  0  0  0  0  0  0  0  0  0  0  0
   -4.4122   -1.4746    0.0000 C   0  0  0  0  0  0  0  0  0  0  0  0
   -1.0482    1.5143    0.0000 C   0  0  0  0  0  0  0  0  0  0  0  0
    1.1945    3.5069    0.0000 C   0  0  0  0  0  0  0  0  0  0  0  0
    4.6457   -0.3775    0.0000 C   0  0  0  0  0  0  0  0  0  0  0  0
   -1.3504    2.9836    0.0000 C   0  0  0  0  0  0  0  0  0  0  0  0
   -0.2290    3.9799    0.0000 C   0  0  0  0  0  0  0  0  0  0  0  0
   -5.5336   -2.4708    0.0000 C   0  0  0  0  0  0  0  0  0  0  0  0
    3.8265   -2.8430    0.0000 C   0  0  0  0  0  0  0  0  0  0  0  0
   -2.7739    3.4565    0.0000 C   0  0  0  0  0  0  0  0  0  0  0  0
   -0.5312    5.4491    0.0000 C   0  0  0  0  0  0  0  0  0  0  0  0
  1 12  1  0
  2 16  1  0
  3 18  1  0
  4 21  2  0
  5 24  1  0
  6 25  2  0
  7 11  1  0
  7 14  1  0
  7 15  1  0
  8 13  1  0
  8 17  1  0
  9 15  2  0
  9 25  1  0
 10 21  1  0
 10 25  1  0
 11 12  1  0
 12 16  1  0
 13 15  1  0
 13 21  1  0
 14 17  2  0
 14 19  1  0
 16 18  1  0
 17 20  1  0
 18 24  1  0
 19 22  2  0
 20 23  2  0
 22 23  1  0
 22 26  1  0
 23 27  1  0
M  END
>  <PUBCHEM_COMPOUND_CID>  (1) 
429

>  <PUBCHEM_COMPOUND_CANONICALIZED>  (1) 
1

>  <PUBCHEM_CACTVS_COMPLEXITY>  (1) 
629

>  <PUBCHEM_CACTVS_HBOND_ACCEPTOR>  (1) 
7

>  <PUBCHEM_CACTVS_HBOND_DONOR>  (1) 
6

>  <PUBCHEM_CACTVS_ROTATABLE_BOND>  (1) 
5

>  <PUBCHEM_CACTVS_SUBSKEYS>  (1) 
AAADceB7uAAAAAAAAAAAAAAAAAAAAAAAAAA8QIAAAAAAAACxAAAAHgAQCAAADDzhmAYzwIPAAgCoAidydACCAAEhAgABiIG4dIiLcCrA2bGUYAhnlSLZyAfwkIIOiAAAQAAQACAQAACAACAAQAAAAAAAAA==

>  <PUBCHEM_IUPAC_OPENEYE_NAME>  (1) 
7,8-dimethyl-10-(2,3,4,5-tetrahydroxypentyl)-4a,5-dihydrobenzo[g]pteridine-2,4-dione

>  <PUBCHEM_IUPAC_CAS_NAME>  (1) 
7,8-dimethyl-10-(2,3,4,5-tetrahydroxypentyl)-4a,5-dihydrobenzo[g]pteridine-2,4-dione

>  <PUBCHEM_IUPAC_NAME_MARKUP>  (1) 
7,8-dimethyl-10-(2,3,4,5-tetrahydroxypentyl)-4<I>a</I>,5-dihydrobenzo[g]pteridine-2,4-dione

>  <PUBCHEM_IUPAC_NAME>  (1) 
7,8-dimethyl-10-(2,3,4,5-tetrahydroxypentyl)-4a,5-dihydrobenzo[g]pteridine-2,4-dione

>  <PUBCHEM_IUPAC_SYSTEMATIC_NAME>  (1) 
7,8-dimethyl-10-[2,3,4,5-tetrakis(oxidanyl)pentyl]-4a,5-dihydrobenzo[g]pteridine-2,4-dione

>  <PUBCHEM_IUPAC_TRADITIONAL_NAME>  (1) 
7,8-dimethyl-10-(2,3,4,5-tetrahydroxypentyl)-4a,5-dihydrobenzo[g]pteridine-2,4-quinone

>  <PUBCHEM_IUPAC_INCHI>  (1) 
InChI=1S/C17H22N4O6/c1-7-3-9-10(4-8(7)2)21(5-11(23)14(25)12(24)6-22)15-13(18-9)16(26)20-17(27)19-15/h3-4,11-14,18,22-25H,5-6H2,1-2H3,(H,20,26,27)

>  <PUBCHEM_IUPAC_INCHIKEY>  (1) 
UTKDOUCGQVLJIN-UHFFFAOYSA-N

>  <PUBCHEM_XLOGP3_AA>  (1) 
-1.3

>  <PUBCHEM_EXACT_MASS>  (1) 
378.153934

>  <PUBCHEM_MOLECULAR_FORMULA>  (1) 
C17H22N4O6

>  <PUBCHEM_MOLECULAR_WEIGHT>  (1) 
378.4

>  <PUBCHEM_OPENEYE_CAN_SMILES>  (1) 
CC1=CC2=C(C=C1C)N(C3=NC(=O)NC(=O)C3N2)CC(C(C(CO)O)O)O

>  <PUBCHEM_OPENEYE_ISO_SMILES>  (1) 
CC1=CC2=C(C=C1C)N(C3=NC(=O)NC(=O)C3N2)CC(C(C(CO)O)O)O

>  <PUBCHEM_CACTVS_TPSA>  (1) 
155

>  <PUBCHEM_MONOISOTOPIC_WEIGHT>  (1) 
378.153934

>  <PUBCHEM_TOTAL_CHARGE>  (1) 
0

>  <PUBCHEM_HEAVY_ATOM_COUNT>  (1) 
27

>  <PUBCHEM_ATOM_DEF_STEREO_COUNT>  (1) 
0

>  <PUBCHEM_ATOM_UDEF_STEREO_COUNT>  (1) 
4

>  <PUBCHEM_BOND_DEF_STEREO_COUNT>  (1) 
0

>  <PUBCHEM_BOND_UDEF_STEREO_COUNT>  (1) 
0

>  <PUBCHEM_ISOTOPIC_ATOM_COUNT>  (1) 
0

>  <PUBCHEM_COMPONENT_COUNT>  (1) 
1

>  <PUBCHEM_CACTVS_TAUTO_COUNT>  (1) 
-1

>  <PUBCHEM_COORDINATE_TYPE>  (1) 
1
5
255

>  <PUBCHEM_BONDANNOTATIONS>  (1) 
12  1  3
13  21  3
14  17  8
14  19  8
17  20  8
19  22  8
16  2  3
20  23  8
22  23  8
18  3  3

$$$$
