430
     RDKit          2D

 13 14  0  0  1  0  0  0  0  0999 V2000
   -2.0169   -0.9775    0.0000 N   0  0  0  0  0  0  0  0  0  0  0  0
    2.6065   -0.6869    0.0000 N   0  0  0  0  0  0  0  0  0  0  0  0
   -1.2366    0.3036    0.0000 C   0  0  0  0  0  0  0  0  0  0  0  0
   -2.2138    1.4416    0.0000 C   0  0  0  0  0  0  0  0  0  0  0  0
   -3.5981    0.8639    0.0000 C   0  0  0  0  0  0  0  0  0  0  0  0
   -3.4764   -0.6312    0.0000 C   0  0  0  0  0  0  0  0  0  0  0  0
    0.2585    0.4253    0.0000 C   0  0  0  0  0  0  0  0  0  0  0  0
   -1.4391   -2.3617    0.0000 C   0  0  0  0  0  0  0  0  0  0  0  0
    1.1114   -0.8086    0.0000 C   0  0  0  0  0  0  0  0  0  0  0  0
    0.9006    1.7809    0.0000 C   0  0  0  0  0  0  0  0  0  0  0  0
    2.3957    1.9026    0.0000 C   0  0  0  0  0  0  0  0  0  0  0  0
    3.2486    0.6687    0.0000 C   0  0  0  0  0  0  0  0  0  0  0  0
    3.4594   -1.9208    0.0000 C   0  0  0  0  0  0  0  0  0  0  0  0
  1  3  1  0
  1  6  1  0
  1  8  1  0
  2  9  2  0
  2 12  1  0
  2 13  1  0
  3  4  1  0
  3  7  1  0
  4  5  1  0
  5  6  1  0
  7  9  1  0
  7 10  2  0
 10 11  1  0
 11 12  2  0
M  CHG  1   2   1
M  END
>  <PUBCHEM_COMPOUND_CID>  (1) 
430

>  <PUBCHEM_COMPOUND_CANONICALIZED>  (1) 
1

>  <PUBCHEM_CACTVS_COMPLEXITY>  (1) 
170

>  <PUBCHEM_CACTVS_HBOND_ACCEPTOR>  (1) 
1

>  <PUBCHEM_CACTVS_HBOND_DONOR>  (1) 
0

>  <PUBCHEM_CACTVS_ROTATABLE_BOND>  (1) 
1

>  <PUBCHEM_CACTVS_SUBSKEYS>  (1) 
AAADceBzAAAAAAAAAAAAAAAAAAAAAWAAAAAsAAAAAAAAAAABgAAAHAAAAAAADCjBGgQ+gJMMEACgAjBnRACCgCAxAiAI2CA4ZJgIIOLA0ZGEIAhggADIyAcQgIAOAAAAAAAAAAAAAAAAAAAAAAAAAAAAAA==

>  <PUBCHEM_IUPAC_OPENEYE_NAME>  (1) 
1-methyl-3-(1-methylpyrrolidin-2-yl)pyridin-1-ium

>  <PUBCHEM_IUPAC_CAS_NAME>  (1) 
1-methyl-3-(1-methyl-2-pyrrolidinyl)pyridin-1-ium

>  <PUBCHEM_IUPAC_NAME_MARKUP>  (1) 
1-methyl-3-(1-methylpyrrolidin-2-yl)pyridin-1-ium

>  <PUBCHEM_IUPAC_NAME>  (1) 
1-methyl-3-(1-methylpyrrolidin-2-yl)pyridin-1-ium

>  <PUBCHEM_IUPAC_SYSTEMATIC_NAME>  (1) 
1-methyl-3-(1-methylpyrrolidin-2-yl)pyridin-1-ium

>  <PUBCHEM_IUPAC_TRADITIONAL_NAME>  (1) 
1-methyl-3-(1-methylpyrrolidin-2-yl)pyridin-1-ium

>  <PUBCHEM_IUPAC_INCHI>  (1) 
InChI=1S/C11H17N2/c1-12-7-3-5-10(9-12)11-6-4-8-13(11)2/h3,5,7,9,11H,4,6,8H2,1-2H3/q+1

>  <PUBCHEM_IUPAC_INCHIKEY>  (1) 
HIOROZIUERMMRQ-UHFFFAOYSA-N

>  <PUBCHEM_XLOGP3>  (1) 
1.3

>  <PUBCHEM_EXACT_MASS>  (1) 
177.139174

>  <PUBCHEM_MOLECULAR_FORMULA>  (1) 
C11H17N2+

>  <PUBCHEM_MOLECULAR_WEIGHT>  (1) 
177.27

>  <PUBCHEM_OPENEYE_CAN_SMILES>  (1) 
CN1CCCC1C2=C[N+](=CC=C2)C

>  <PUBCHEM_OPENEYE_ISO_SMILES>  (1) 
CN1CCCC1C2=C[N+](=CC=C2)C

>  <PUBCHEM_CACTVS_TPSA>  (1) 
7.1

>  <PUBCHEM_MONOISOTOPIC_WEIGHT>  (1) 
177.139174

>  <PUBCHEM_TOTAL_CHARGE>  (1) 
1

>  <PUBCHEM_HEAVY_ATOM_COUNT>  (1) 
13

>  <PUBCHEM_ATOM_DEF_STEREO_COUNT>  (1) 
0

>  <PUBCHEM_ATOM_UDEF_STEREO_COUNT>  (1) 
1

>  <PUBCHEM_BOND_DEF_STEREO_COUNT>  (1) 
0

>  <PUBCHEM_BOND_UDEF_STEREO_COUNT>  (1) 
0

>  <PUBCHEM_ISOTOPIC_ATOM_COUNT>  (1) 
0

>  <PUBCHEM_COMPONENT_COUNT>  (1) 
1

>  <PUBCHEM_CACTVS_TAUTO_COUNT>  (1) 
-1

>  <PUBCHEM_COORDINATE_TYPE>  (1) 
1
5
255

>  <PUBCHEM_BONDANNOTATIONS>  (1) 
10  11  8
11  12  8
2  12  8
2  9  8
3  7  3
7  10  8
7  9  8

$$$$
