431
     RDKit          2D

 12 13  0  0  1  0  0  0  0  0999 V2000
   -1.8869   -0.8493    0.0000 N   0  0  0  0  0  0  0  0  0  0  0  0
    2.7241   -1.2948    0.0000 N   0  0  0  0  0  0  0  0  0  0  0  0
   -0.9136    0.2919    0.0000 C   0  0  0  0  0  0  0  0  0  0  0  0
   -1.6982    1.5704    0.0000 C   0  0  0  0  0  0  0  0  0  0  0  0
   -3.1565    1.2192    0.0000 C   0  0  0  0  0  0  0  0  0  0  0  0
   -3.2732   -0.2763    0.0000 C   0  0  0  0  0  0  0  0  0  0  0  0
    0.5819    0.1753    0.0000 C   0  0  0  0  0  0  0  0  0  0  0  0
   -1.5358   -2.3077    0.0000 C   0  0  0  0  0  0  0  0  0  0  0  0
    1.4306    1.4121    0.0000 C   0  0  0  0  0  0  0  0  0  0  0  0
    1.2286   -1.1781    0.0000 C   0  0  0  0  0  0  0  0  0  0  0  0
    2.9261    1.2954    0.0000 C   0  0  0  0  0  0  0  0  0  0  0  0
    3.5728   -0.0580    0.0000 C   0  0  0  0  0  0  0  0  0  0  0  0
  1  3  1  0
  1  6  2  0
  1  8  1  0
  2 10  2  0
  2 12  1  0
  3  4  1  0
  3  7  1  0
  4  5  1  0
  5  6  1  0
  7  9  2  0
  7 10  1  0
  9 11  1  0
 11 12  2  0
M  CHG  1   1   1
M  END
>  <PUBCHEM_COMPOUND_CID>  (1) 
431

>  <PUBCHEM_COMPOUND_CANONICALIZED>  (1) 
1

>  <PUBCHEM_CACTVS_COMPLEXITY>  (1) 
186

>  <PUBCHEM_CACTVS_HBOND_ACCEPTOR>  (1) 
1

>  <PUBCHEM_CACTVS_HBOND_DONOR>  (1) 
0

>  <PUBCHEM_CACTVS_ROTATABLE_BOND>  (1) 
1

>  <PUBCHEM_CACTVS_SUBSKEYS>  (1) 
AAADccBzAAAAAAAAAAAAAAAAAAAAAQAAAAAsAAAAAAAAAAABgAAAHAAAAAAADCjBGgQ+gJMIEACgAjBnRACCgCAxAiAI2CA4ZJgIIOLA0ZGEIAhggADIyAcQgIAOAAAAAAAAAAAAAAAAAAAAAAAAAAAAAA==

>  <PUBCHEM_IUPAC_OPENEYE_NAME>  (1) 
3-(1-methyl-3,4-dihydro-2H-pyrrol-1-ium-2-yl)pyridine

>  <PUBCHEM_IUPAC_CAS_NAME>  (1) 
3-(1-methyl-3,4-dihydro-2H-pyrrol-1-ium-2-yl)pyridine

>  <PUBCHEM_IUPAC_NAME_MARKUP>  (1) 
3-(1-methyl-3,4-dihydro-2<I>H</I>-pyrrol-1-ium-2-yl)pyridine

>  <PUBCHEM_IUPAC_NAME>  (1) 
3-(1-methyl-3,4-dihydro-2H-pyrrol-1-ium-2-yl)pyridine

>  <PUBCHEM_IUPAC_SYSTEMATIC_NAME>  (1) 
3-(1-methyl-3,4-dihydro-2H-pyrrol-1-ium-2-yl)pyridine

>  <PUBCHEM_IUPAC_TRADITIONAL_NAME>  (1) 
3-(1-methyl-1-pyrrolin-1-ium-2-yl)pyridine

>  <PUBCHEM_IUPAC_INCHI>  (1) 
InChI=1S/C10H13N2/c1-12-7-3-5-10(12)9-4-2-6-11-8-9/h2,4,6-8,10H,3,5H2,1H3/q+1

>  <PUBCHEM_IUPAC_INCHIKEY>  (1) 
GTQXYYYOJZZJHL-UHFFFAOYSA-N

>  <PUBCHEM_XLOGP3_AA>  (1) 
0.2

>  <PUBCHEM_EXACT_MASS>  (1) 
161.107873

>  <PUBCHEM_MOLECULAR_FORMULA>  (1) 
C10H13N2+

>  <PUBCHEM_MOLECULAR_WEIGHT>  (1) 
161.22

>  <PUBCHEM_OPENEYE_CAN_SMILES>  (1) 
C[N+]1=CCCC1C2=CN=CC=C2

>  <PUBCHEM_OPENEYE_ISO_SMILES>  (1) 
C[N+]1=CCCC1C2=CN=CC=C2

>  <PUBCHEM_CACTVS_TPSA>  (1) 
15.9

>  <PUBCHEM_MONOISOTOPIC_WEIGHT>  (1) 
161.107873

>  <PUBCHEM_TOTAL_CHARGE>  (1) 
1

>  <PUBCHEM_HEAVY_ATOM_COUNT>  (1) 
12

>  <PUBCHEM_ATOM_DEF_STEREO_COUNT>  (1) 
0

>  <PUBCHEM_ATOM_UDEF_STEREO_COUNT>  (1) 
1

>  <PUBCHEM_BOND_DEF_STEREO_COUNT>  (1) 
0

>  <PUBCHEM_BOND_UDEF_STEREO_COUNT>  (1) 
0

>  <PUBCHEM_ISOTOPIC_ATOM_COUNT>  (1) 
0

>  <PUBCHEM_COMPONENT_COUNT>  (1) 
1

>  <PUBCHEM_CACTVS_TAUTO_COUNT>  (1) 
-1

>  <PUBCHEM_COORDINATE_TYPE>  (1) 
1
5
255

>  <PUBCHEM_BONDANNOTATIONS>  (1) 
11  12  8
2  10  8
2  12  8
3  7  3
7  10  8
7  9  8
9  11  8

$$$$
