432
     RDKit          2D

 13 14  0  0  1  0  0  0  0  0999 V2000
   -0.6530   -1.6029    0.0000 O   0  0  0  0  0  0  0  0  0  0  0  0
   -2.3221   -0.4875    0.0000 N   0  0  0  0  0  0  0  0  0  0  0  0
    2.9298   -1.2694    0.0000 N   0  0  0  0  0  0  0  0  0  0  0  0
   -0.8682   -0.1184    0.0000 C   0  0  0  0  0  0  0  0  0  0  0  0
   -0.7700    1.3784    0.0000 C   0  0  0  0  0  0  0  0  0  0  0  0
   -2.1632    1.9343    0.0000 C   0  0  0  0  0  0  0  0  0  0  0  0
   -3.1224    0.7811    0.0000 C   0  0  0  0  0  0  0  0  0  0  0  0
    0.6306   -0.0596    0.0000 C   0  0  0  0  0  0  0  0  0  0  0  0
   -2.8780   -1.8807    0.0000 C   0  0  0  0  0  0  0  0  0  0  0  0
    1.3291    1.2679    0.0000 C   0  0  0  0  0  0  0  0  0  0  0  0
    1.4310   -1.3282    0.0000 C   0  0  0  0  0  0  0  0  0  0  0  0
    2.8280    1.3267    0.0000 C   0  0  0  0  0  0  0  0  0  0  0  0
    3.6283    0.0581    0.0000 C   0  0  0  0  0  0  0  0  0  0  0  0
  1  4  1  0
  2  4  1  0
  2  7  1  0
  2  9  1  0
  3 11  2  0
  3 13  1  0
  4  5  1  0
  4  8  1  0
  5  6  1  0
  6  7  1  0
  8 10  2  0
  8 11  1  0
 10 12  1  0
 12 13  2  0
M  END
>  <PUBCHEM_COMPOUND_CID>  (1) 
432

>  <PUBCHEM_COMPOUND_CANONICALIZED>  (1) 
1

>  <PUBCHEM_CACTVS_COMPLEXITY>  (1) 
186

>  <PUBCHEM_CACTVS_HBOND_ACCEPTOR>  (1) 
3

>  <PUBCHEM_CACTVS_HBOND_DONOR>  (1) 
1

>  <PUBCHEM_CACTVS_ROTATABLE_BOND>  (1) 
1

>  <PUBCHEM_CACTVS_SUBSKEYS>  (1) 
AAADccBzIAAAAAAAAAAAAAAAAAAAAWAAAAAsAAAAAAAAAAABgAAAHgAACAAADAzBmgQ+gJMIEgCgAjBnRACCgCAxAiAI2CA4bJgIJuLA0ZGEcAhmwAHI2AewkIIOAAAAAAAAAAAAAAAAAAAAAAAAAAAAAA==

>  <PUBCHEM_IUPAC_OPENEYE_NAME>  (1) 
1-methyl-2-(3-pyridyl)pyrrolidin-2-ol

>  <PUBCHEM_IUPAC_CAS_NAME>  (1) 
1-methyl-2-(3-pyridinyl)-2-pyrrolidinol

>  <PUBCHEM_IUPAC_NAME_MARKUP>  (1) 
1-methyl-2-pyridin-3-ylpyrrolidin-2-ol

>  <PUBCHEM_IUPAC_NAME>  (1) 
1-methyl-2-pyridin-3-ylpyrrolidin-2-ol

>  <PUBCHEM_IUPAC_SYSTEMATIC_NAME>  (1) 
1-methyl-2-pyridin-3-yl-pyrrolidin-2-ol

>  <PUBCHEM_IUPAC_TRADITIONAL_NAME>  (1) 
1-methyl-2-(3-pyridyl)pyrrolidin-2-ol

>  <PUBCHEM_IUPAC_INCHI>  (1) 
InChI=1S/C10H14N2O/c1-12-7-3-5-10(12,13)9-4-2-6-11-8-9/h2,4,6,8,13H,3,5,7H2,1H3

>  <PUBCHEM_IUPAC_INCHIKEY>  (1) 
BOQRPPFUUSHFGW-UHFFFAOYSA-N

>  <PUBCHEM_XLOGP3_AA>  (1) 
0.4

>  <PUBCHEM_EXACT_MASS>  (1) 
178.110613

>  <PUBCHEM_MOLECULAR_FORMULA>  (1) 
C10H14N2O

>  <PUBCHEM_MOLECULAR_WEIGHT>  (1) 
178.23

>  <PUBCHEM_OPENEYE_CAN_SMILES>  (1) 
CN1CCCC1(C2=CN=CC=C2)O

>  <PUBCHEM_OPENEYE_ISO_SMILES>  (1) 
CN1CCCC1(C2=CN=CC=C2)O

>  <PUBCHEM_CACTVS_TPSA>  (1) 
36.4

>  <PUBCHEM_MONOISOTOPIC_WEIGHT>  (1) 
178.110613

>  <PUBCHEM_TOTAL_CHARGE>  (1) 
0

>  <PUBCHEM_HEAVY_ATOM_COUNT>  (1) 
13

>  <PUBCHEM_ATOM_DEF_STEREO_COUNT>  (1) 
0

>  <PUBCHEM_ATOM_UDEF_STEREO_COUNT>  (1) 
1

>  <PUBCHEM_BOND_DEF_STEREO_COUNT>  (1) 
0

>  <PUBCHEM_BOND_UDEF_STEREO_COUNT>  (1) 
0

>  <PUBCHEM_ISOTOPIC_ATOM_COUNT>  (1) 
0

>  <PUBCHEM_COMPONENT_COUNT>  (1) 
1

>  <PUBCHEM_CACTVS_TAUTO_COUNT>  (1) 
-1

>  <PUBCHEM_COORDINATE_TYPE>  (1) 
1
5
255

>  <PUBCHEM_BONDANNOTATIONS>  (1) 
4  1  3
10  12  8
12  13  8
3  11  8
3  13  8
8  10  8
8  11  8

$$$$
