433
     RDKit          2D

 14 15  0  0  1  0  0  0  0  0999 V2000
   -4.1075    0.0023    0.0000 O   0  0  0  0  0  0  0  0  0  0  0  0
   -2.6270   -2.5910    0.0000 O   0  0  0  0  0  0  0  0  0  0  0  0
   -1.4489   -0.2754    0.0000 N   0  0  0  0  0  0  0  0  0  0  0  0
    3.0036   -1.5540    0.0000 N   0  0  0  0  0  0  0  0  0  0  0  0
   -0.2838    0.6693    0.0000 C   0  0  0  0  0  0  0  0  0  0  0  0
   -0.8223    2.0693    0.0000 C   0  0  0  0  0  0  0  0  0  0  0  0
   -2.3202    1.9899    0.0000 C   0  0  0  0  0  0  0  0  0  0  0  0
   -2.7075    0.5408    0.0000 C   0  0  0  0  0  0  0  0  0  0  0  0
    1.1653    0.2820    0.0000 C   0  0  0  0  0  0  0  0  0  0  0  0
   -1.3695   -1.7733    0.0000 C   0  0  0  0  0  0  0  0  0  0  0  0
    2.2253    1.3433    0.0000 C   0  0  0  0  0  0  0  0  0  0  0  0
    1.5544   -1.1666    0.0000 C   0  0  0  0  0  0  0  0  0  0  0  0
    3.6744    0.9560    0.0000 C   0  0  0  0  0  0  0  0  0  0  0  0
    4.0636   -0.4926    0.0000 C   0  0  0  0  0  0  0  0  0  0  0  0
  1  8  2  0
  2 10  1  0
  3  5  1  0
  3  8  1  0
  3 10  1  0
  4 12  2  0
  4 14  1  0
  5  6  1  0
  5  9  1  0
  6  7  1  0
  7  8  1  0
  9 11  2  0
  9 12  1  0
 11 13  1  0
 13 14  2  0
M  END
>  <PUBCHEM_COMPOUND_CID>  (1) 
433

>  <PUBCHEM_COMPOUND_CANONICALIZED>  (1) 
1

>  <PUBCHEM_CACTVS_COMPLEXITY>  (1) 
220

>  <PUBCHEM_CACTVS_HBOND_ACCEPTOR>  (1) 
3

>  <PUBCHEM_CACTVS_HBOND_DONOR>  (1) 
1

>  <PUBCHEM_CACTVS_ROTATABLE_BOND>  (1) 
2

>  <PUBCHEM_CACTVS_SUBSKEYS>  (1) 
AAADccBzMAAAAAAAAAAAAAAAAAAAAWAAAAAsAAAAAAAAAAABgAAAHgAACAAADCjBmgY8gJMIEgCoAjF3VACCgCAxAiAI2CE4ZJgIMPLA0ZGEIAhghgDIyAcciICOAAAAAAAAAAAAAAAAAAAAAAAAAAAAAA==

>  <PUBCHEM_IUPAC_OPENEYE_NAME>  (1) 
1-(hydroxymethyl)-5-(3-pyridyl)pyrrolidin-2-one

>  <PUBCHEM_IUPAC_CAS_NAME>  (1) 
1-(hydroxymethyl)-5-(3-pyridinyl)-2-pyrrolidinone

>  <PUBCHEM_IUPAC_NAME_MARKUP>  (1) 
1-(hydroxymethyl)-5-pyridin-3-ylpyrrolidin-2-one

>  <PUBCHEM_IUPAC_NAME>  (1) 
1-(hydroxymethyl)-5-pyridin-3-ylpyrrolidin-2-one

>  <PUBCHEM_IUPAC_SYSTEMATIC_NAME>  (1) 
1-(hydroxymethyl)-5-pyridin-3-yl-pyrrolidin-2-one

>  <PUBCHEM_IUPAC_TRADITIONAL_NAME>  (1) 
1-methylol-5-(3-pyridyl)-2-pyrrolidone

>  <PUBCHEM_IUPAC_INCHI>  (1) 
InChI=1S/C10H12N2O2/c13-7-12-9(3-4-10(12)14)8-2-1-5-11-6-8/h1-2,5-6,9,13H,3-4,7H2

>  <PUBCHEM_IUPAC_INCHIKEY>  (1) 
GQUFOBHEPVFQMD-UHFFFAOYSA-N

>  <PUBCHEM_XLOGP3>  (1) 
-0.4

>  <PUBCHEM_EXACT_MASS>  (1) 
192.089878

>  <PUBCHEM_MOLECULAR_FORMULA>  (1) 
C10H12N2O2

>  <PUBCHEM_MOLECULAR_WEIGHT>  (1) 
192.21

>  <PUBCHEM_OPENEYE_CAN_SMILES>  (1) 
C1CC(=O)N(C1C2=CN=CC=C2)CO

>  <PUBCHEM_OPENEYE_ISO_SMILES>  (1) 
C1CC(=O)N(C1C2=CN=CC=C2)CO

>  <PUBCHEM_CACTVS_TPSA>  (1) 
53.4

>  <PUBCHEM_MONOISOTOPIC_WEIGHT>  (1) 
192.089878

>  <PUBCHEM_TOTAL_CHARGE>  (1) 
0

>  <PUBCHEM_HEAVY_ATOM_COUNT>  (1) 
14

>  <PUBCHEM_ATOM_DEF_STEREO_COUNT>  (1) 
0

>  <PUBCHEM_ATOM_UDEF_STEREO_COUNT>  (1) 
1

>  <PUBCHEM_BOND_DEF_STEREO_COUNT>  (1) 
0

>  <PUBCHEM_BOND_UDEF_STEREO_COUNT>  (1) 
0

>  <PUBCHEM_ISOTOPIC_ATOM_COUNT>  (1) 
0

>  <PUBCHEM_COMPONENT_COUNT>  (1) 
1

>  <PUBCHEM_CACTVS_TAUTO_COUNT>  (1) 
-1

>  <PUBCHEM_COORDINATE_TYPE>  (1) 
1
5
255

>  <PUBCHEM_BONDANNOTATIONS>  (1) 
11  13  8
13  14  8
4  12  8
4  14  8
5  9  3
9  11  8
9  12  8

$$$$
