445
     RDKit          2D

 16 16  0  0  1  0  0  0  0  0999 V2000
    2.1531    3.0574    0.0000 Cl  0  0  0  0  0  0  0  0  0  0  0  0
    0.3220   -3.2193    0.0000 O   0  0  0  0  0  0  0  0  0  0  0  0
   -1.4337    0.3398    0.0000 N   0  0  0  0  0  0  0  0  0  0  0  0
   -2.8160    0.9223    0.0000 C   0  0  0  0  0  0  0  0  0  0  0  0
   -1.2470   -1.1485    0.0000 C   0  0  0  0  0  0  0  0  0  0  0  0
    0.1353   -1.7310    0.0000 C   0  0  0  0  0  0  0  0  0  0  0  0
   -2.2335    2.3046    0.0000 C   0  0  0  0  0  0  0  0  0  0  0  0
   -3.3984   -0.4600    0.0000 C   0  0  0  0  0  0  0  0  0  0  0  0
   -4.1983    1.5048    0.0000 C   0  0  0  0  0  0  0  0  0  0  0  0
   -2.4425   -2.0544    0.0000 C   0  0  0  0  0  0  0  0  0  0  0  0
    1.3309   -0.8251    0.0000 C   0  0  0  0  0  0  0  0  0  0  0  0
    1.1442    0.6632    0.0000 C   0  0  0  0  0  0  0  0  0  0  0  0
    2.7132   -1.4076    0.0000 C   0  0  0  0  0  0  0  0  0  0  0  0
    2.3398    1.5691    0.0000 C   0  0  0  0  0  0  0  0  0  0  0  0
    3.9088   -0.5017    0.0000 C   0  0  0  0  0  0  0  0  0  0  0  0
    3.7221    0.9866    0.0000 C   0  0  0  0  0  0  0  0  0  0  0  0
  1 14  1  0
  2  6  1  0
  3  4  1  0
  3  5  1  0
  4  7  1  0
  4  8  1  0
  4  9  1  0
  5  6  1  0
  5 10  1  0
  6 11  1  0
 11 12  2  0
 11 13  1  0
 12 14  1  0
 13 15  2  0
 14 16  2  0
 15 16  1  0
M  END
>  <PUBCHEM_COMPOUND_CID>  (1) 
445

>  <PUBCHEM_COMPOUND_CANONICALIZED>  (1) 
1

>  <PUBCHEM_CACTVS_COMPLEXITY>  (1) 
215

>  <PUBCHEM_CACTVS_HBOND_ACCEPTOR>  (1) 
2

>  <PUBCHEM_CACTVS_HBOND_DONOR>  (1) 
2

>  <PUBCHEM_CACTVS_ROTATABLE_BOND>  (1) 
4

>  <PUBCHEM_CACTVS_SUBSKEYS>  (1) 
AAADceByIAAEAAAAAAAAAAAAAAAAAAAAAAAwAAAAAAAAAAABAAAAHgIQCAAADL7hmCYyAILAAgCAAiBCAAACAAAgBQAIiIAICogKNiKBkxGEcAAk0AGYmAeQwKAOAAAAIAAAAAAAAABAAAAAAAAAAAAAAA==

>  <PUBCHEM_IUPAC_OPENEYE_NAME>  (1) 
2-(tert-butylamino)-1-(3-chlorophenyl)propan-1-ol

>  <PUBCHEM_IUPAC_CAS_NAME>  (1) 
2-(tert-butylamino)-1-(3-chlorophenyl)-1-propanol

>  <PUBCHEM_IUPAC_NAME_MARKUP>  (1) 
2-(<I>tert</I>-butylamino)-1-(3-chlorophenyl)propan-1-ol

>  <PUBCHEM_IUPAC_NAME>  (1) 
2-(tert-butylamino)-1-(3-chlorophenyl)propan-1-ol

>  <PUBCHEM_IUPAC_SYSTEMATIC_NAME>  (1) 
2-(tert-butylamino)-1-(3-chlorophenyl)propan-1-ol

>  <PUBCHEM_IUPAC_TRADITIONAL_NAME>  (1) 
2-(tert-butylamino)-1-(3-chlorophenyl)propan-1-ol

>  <PUBCHEM_IUPAC_INCHI>  (1) 
InChI=1S/C13H20ClNO/c1-9(15-13(2,3)4)12(16)10-6-5-7-11(14)8-10/h5-9,12,15-16H,1-4H3

>  <PUBCHEM_IUPAC_INCHIKEY>  (1) 
NDPTTXIBLSWNSF-UHFFFAOYSA-N

>  <PUBCHEM_XLOGP3_AA>  (1) 
2.7

>  <PUBCHEM_EXACT_MASS>  (1) 
241.123342

>  <PUBCHEM_MOLECULAR_FORMULA>  (1) 
C13H20ClNO

>  <PUBCHEM_MOLECULAR_WEIGHT>  (1) 
241.76

>  <PUBCHEM_OPENEYE_CAN_SMILES>  (1) 
CC(C(C1=CC(=CC=C1)Cl)O)NC(C)(C)C

>  <PUBCHEM_OPENEYE_ISO_SMILES>  (1) 
CC(C(C1=CC(=CC=C1)Cl)O)NC(C)(C)C

>  <PUBCHEM_CACTVS_TPSA>  (1) 
32.3

>  <PUBCHEM_MONOISOTOPIC_WEIGHT>  (1) 
241.123342

>  <PUBCHEM_TOTAL_CHARGE>  (1) 
0

>  <PUBCHEM_HEAVY_ATOM_COUNT>  (1) 
16

>  <PUBCHEM_ATOM_DEF_STEREO_COUNT>  (1) 
0

>  <PUBCHEM_ATOM_UDEF_STEREO_COUNT>  (1) 
2

>  <PUBCHEM_BOND_DEF_STEREO_COUNT>  (1) 
0

>  <PUBCHEM_BOND_UDEF_STEREO_COUNT>  (1) 
0

>  <PUBCHEM_ISOTOPIC_ATOM_COUNT>  (1) 
0

>  <PUBCHEM_COMPONENT_COUNT>  (1) 
1

>  <PUBCHEM_CACTVS_TAUTO_COUNT>  (1) 
-1

>  <PUBCHEM_COORDINATE_TYPE>  (1) 
1
5
255

>  <PUBCHEM_BONDANNOTATIONS>  (1) 
11  12  8
11  13  8
12  14  8
13  15  8
14  16  8
15  16  8
6  2  3
5  10  3

$$$$
