449
     RDKit          2D

 10  9  0  0  1  0  0  0  0  0999 V2000
    1.6400    1.5889    0.0000 O   0  0  0  0  0  0  0  0  0  0  0  0
    2.3994   -2.0889    0.0000 O   0  0  0  0  0  0  0  0  0  0  0  0
   -3.1070   -1.0025    0.0000 O   0  0  0  0  0  0  0  0  0  0  0  0
   -0.6006   -1.6867    0.0000 O   0  0  0  0  0  0  0  0  0  0  0  0
    0.1893    1.2075    0.0000 C   0  0  0  0  0  0  0  0  0  0  0  0
    0.5708   -0.2432    0.0000 C   0  0  0  0  0  0  0  0  0  0  0  0
   -1.2613    0.8260    0.0000 C   0  0  0  0  0  0  0  0  0  0  0  0
   -0.1921    2.6581    0.0000 C   0  0  0  0  0  0  0  0  0  0  0  0
    2.0179   -0.6382    0.0000 C   0  0  0  0  0  0  0  0  0  0  0  0
   -1.6563   -0.6211    0.0000 C   0  0  0  0  0  0  0  0  0  0  0  0
  1  5  1  0
  2  9  1  0
  3 10  1  0
  4 10  2  0
  5  6  1  0
  5  7  1  0
  5  8  1  0
  6  9  1  0
  7 10  1  0
M  END
>  <PUBCHEM_COMPOUND_CID>  (1) 
449

>  <PUBCHEM_COMPOUND_CANONICALIZED>  (1) 
1

>  <PUBCHEM_CACTVS_COMPLEXITY>  (1) 
123

>  <PUBCHEM_CACTVS_HBOND_ACCEPTOR>  (1) 
4

>  <PUBCHEM_CACTVS_HBOND_DONOR>  (1) 
3

>  <PUBCHEM_CACTVS_ROTATABLE_BOND>  (1) 
4

>  <PUBCHEM_CACTVS_SUBSKEYS>  (1) 
AAADccBgOAAAAAAAAAAAAAAAAAAAAAAAAAAAAAAAAAAAAAAAAAAAGgAACAAADESggAICCAAAAgAIAACQCAAAAAAAAAAAAAEAAAAAEBYAAAAAQAAFIAAAAACIJAAKAAAAAAAAAAAAAAAAAAAAAAAAAAAAAA==

>  <PUBCHEM_IUPAC_OPENEYE_NAME>  (1) 
3,5-dihydroxy-3-methyl-pentanoic acid

>  <PUBCHEM_IUPAC_CAS_NAME>  (1) 
3,5-dihydroxy-3-methylpentanoic acid

>  <PUBCHEM_IUPAC_NAME_MARKUP>  (1) 
3,5-dihydroxy-3-methylpentanoic acid

>  <PUBCHEM_IUPAC_NAME>  (1) 
3,5-dihydroxy-3-methylpentanoic acid

>  <PUBCHEM_IUPAC_SYSTEMATIC_NAME>  (1) 
3-methyl-3,5-bis(oxidanyl)pentanoic acid

>  <PUBCHEM_IUPAC_TRADITIONAL_NAME>  (1) 
3,5-dihydroxy-3-methyl-valeric acid

>  <PUBCHEM_IUPAC_INCHI>  (1) 
InChI=1S/C6H12O4/c1-6(10,2-3-7)4-5(8)9/h7,10H,2-4H2,1H3,(H,8,9)

>  <PUBCHEM_IUPAC_INCHIKEY>  (1) 
KJTLQQUUPVSXIM-UHFFFAOYSA-N

>  <PUBCHEM_XLOGP3_AA>  (1) 
-1

>  <PUBCHEM_EXACT_MASS>  (1) 
148.073559

>  <PUBCHEM_MOLECULAR_FORMULA>  (1) 
C6H12O4

>  <PUBCHEM_MOLECULAR_WEIGHT>  (1) 
148.16

>  <PUBCHEM_OPENEYE_CAN_SMILES>  (1) 
CC(CCO)(CC(=O)O)O

>  <PUBCHEM_OPENEYE_ISO_SMILES>  (1) 
CC(CCO)(CC(=O)O)O

>  <PUBCHEM_CACTVS_TPSA>  (1) 
77.8

>  <PUBCHEM_MONOISOTOPIC_WEIGHT>  (1) 
148.073559

>  <PUBCHEM_TOTAL_CHARGE>  (1) 
0

>  <PUBCHEM_HEAVY_ATOM_COUNT>  (1) 
10

>  <PUBCHEM_ATOM_DEF_STEREO_COUNT>  (1) 
0

>  <PUBCHEM_ATOM_UDEF_STEREO_COUNT>  (1) 
1

>  <PUBCHEM_BOND_DEF_STEREO_COUNT>  (1) 
0

>  <PUBCHEM_BOND_UDEF_STEREO_COUNT>  (1) 
0

>  <PUBCHEM_ISOTOPIC_ATOM_COUNT>  (1) 
0

>  <PUBCHEM_COMPONENT_COUNT>  (1) 
1

>  <PUBCHEM_CACTVS_TAUTO_COUNT>  (1) 
-1

>  <PUBCHEM_COORDINATE_TYPE>  (1) 
1
5
255

>  <PUBCHEM_BONDANNOTATIONS>  (1) 
5  1  3

$$$$
