453
     RDKit          2D

 12 11  0  0  1  0  0  0  0  0999 V2000
    0.4498    1.9327    0.0000 O   0  0  0  0  0  0  0  0  0  0  0  0
   -0.4498   -1.9327    0.0000 O   0  0  0  0  0  0  0  0  0  0  0  0
    2.1340   -1.6609    0.0000 O   0  0  0  0  0  0  0  0  0  0  0  0
   -2.1340    1.6609    0.0000 O   0  0  0  0  0  0  0  0  0  0  0  0
    4.5609    0.1026    0.0000 O   0  0  0  0  0  0  0  0  0  0  0  0
   -4.5609   -0.1026    0.0000 O   0  0  0  0  0  0  0  0  0  0  0  0
    0.6067    0.4409    0.0000 C   0  0  0  0  0  0  0  0  0  0  0  0
   -0.6067   -0.4409    0.0000 C   0  0  0  0  0  0  0  0  0  0  0  0
    1.9771   -0.1691    0.0000 C   0  0  0  0  0  0  0  0  0  0  0  0
   -1.9771    0.1691    0.0000 C   0  0  0  0  0  0  0  0  0  0  0  0
    3.1906    0.7126    0.0000 C   0  0  0  0  0  0  0  0  0  0  0  0
   -3.1906   -0.7126    0.0000 C   0  0  0  0  0  0  0  0  0  0  0  0
  1  7  1  0
  2  8  1  0
  3  9  1  0
  4 10  1  0
  5 11  1  0
  6 12  1  0
  7  8  1  0
  7  9  1  0
  8 10  1  0
  9 11  1  0
 10 12  1  0
M  END
>  <PUBCHEM_COMPOUND_CID>  (1) 
453

>  <PUBCHEM_COMPOUND_CANONICALIZED>  (1) 
1

>  <PUBCHEM_CACTVS_COMPLEXITY>  (1) 
105

>  <PUBCHEM_CACTVS_HBOND_ACCEPTOR>  (1) 
6

>  <PUBCHEM_CACTVS_HBOND_DONOR>  (1) 
6

>  <PUBCHEM_CACTVS_ROTATABLE_BOND>  (1) 
5

>  <PUBCHEM_CACTVS_SUBSKEYS>  (1) 
AAADccBgOAAAAAAAAAAAAAAAAAAAAAAAAAAAAAAAAAAAAAAAAAAAGgAACAAACBSggAIAAAAAAgAAAAAAAAAAAAAAAAAAAAAAAAABEAIAAAAAQAAFAAABAAHAYAQAAAAAAAAAAAAAAAAAAAAAAAAAAAAAAA==

>  <PUBCHEM_IUPAC_OPENEYE_NAME>  (1) 
hexane-1,2,3,4,5,6-hexol

>  <PUBCHEM_IUPAC_CAS_NAME>  (1) 
hexane-1,2,3,4,5,6-hexol

>  <PUBCHEM_IUPAC_NAME_MARKUP>  (1) 
hexane-1,2,3,4,5,6-hexol

>  <PUBCHEM_IUPAC_NAME>  (1) 
hexane-1,2,3,4,5,6-hexol

>  <PUBCHEM_IUPAC_SYSTEMATIC_NAME>  (1) 
hexane-1,2,3,4,5,6-hexol

>  <PUBCHEM_IUPAC_TRADITIONAL_NAME>  (1) 
hexane-1,2,3,4,5,6-hexol

>  <PUBCHEM_IUPAC_INCHI>  (1) 
InChI=1S/C6H14O6/c7-1-3(9)5(11)6(12)4(10)2-8/h3-12H,1-2H2

>  <PUBCHEM_IUPAC_INCHIKEY>  (1) 
FBPFZTCFMRRESA-UHFFFAOYSA-N

>  <PUBCHEM_XLOGP3>  (1) 
-3.1

>  <PUBCHEM_EXACT_MASS>  (1) 
182.079038

>  <PUBCHEM_MOLECULAR_FORMULA>  (1) 
C6H14O6

>  <PUBCHEM_MOLECULAR_WEIGHT>  (1) 
182.17

>  <PUBCHEM_OPENEYE_CAN_SMILES>  (1) 
C(C(C(C(C(CO)O)O)O)O)O

>  <PUBCHEM_OPENEYE_ISO_SMILES>  (1) 
C(C(C(C(C(CO)O)O)O)O)O

>  <PUBCHEM_CACTVS_TPSA>  (1) 
121

>  <PUBCHEM_MONOISOTOPIC_WEIGHT>  (1) 
182.079038

>  <PUBCHEM_TOTAL_CHARGE>  (1) 
0

>  <PUBCHEM_HEAVY_ATOM_COUNT>  (1) 
12

>  <PUBCHEM_ATOM_DEF_STEREO_COUNT>  (1) 
0

>  <PUBCHEM_ATOM_UDEF_STEREO_COUNT>  (1) 
4

>  <PUBCHEM_BOND_DEF_STEREO_COUNT>  (1) 
0

>  <PUBCHEM_BOND_UDEF_STEREO_COUNT>  (1) 
0

>  <PUBCHEM_ISOTOPIC_ATOM_COUNT>  (1) 
0

>  <PUBCHEM_COMPONENT_COUNT>  (1) 
1

>  <PUBCHEM_CACTVS_TAUTO_COUNT>  (1) 
-1

>  <PUBCHEM_COORDINATE_TYPE>  (1) 
1
5
255

>  <PUBCHEM_BONDANNOTATIONS>  (1) 
7  1  3
8  2  3
9  3  3
10  4  3

$$$$
