467
     RDKit          2D

 49 49  0  0  1  0  0  0  0  0999 V2000
   -0.0567    3.9784    0.0000 P   0  0  0  0  0  0  0  0  0  0  0  0
   -2.3008    5.2875    0.0000 P   0  0  0  0  0  0  0  0  0  0  0  0
    0.6875    2.6760    0.0000 O   0  0  0  0  0  0  0  0  0  0  0  0
   -0.8008    5.2808    0.0000 O   0  0  0  0  0  0  0  0  0  0  0  0
    1.2457    4.7225    0.0000 O   0  0  0  0  0  0  0  0  0  0  0  0
   -1.3590    3.2342    0.0000 O   0  0  0  0  0  0  0  0  0  0  0  0
   -2.3075    3.7875    0.0000 O   0  0  0  0  0  0  0  0  0  0  0  0
   -3.8008    5.2942    0.0000 O   0  0  0  0  0  0  0  0  0  0  0  0
   -2.2941    6.7875    0.0000 O   0  0  0  0  0  0  0  0  0  0  0  0
    1.9716   -0.6779    0.0000 C   0  0  0  0  0  0  0  0  0  0  0  0
    0.6759    0.0779    0.0000 C   0  0  0  0  0  0  0  0  0  0  0  0
    0.6692   -1.4220    0.0000 C   0  0  0  0  0  0  0  0  0  0  0  0
    2.9306   -1.8312    0.0000 C   0  0  0  0  0  0  0  0  0  0  0  0
    2.9409    0.4669    0.0000 C   0  0  0  0  0  0  0  0  0  0  0  0
   -0.0683    1.3803    0.0000 C   0  0  0  0  0  0  0  0  0  0  0  0
   -0.0866   -2.7177    0.0000 C   0  0  0  0  0  0  0  0  0  0  0  0
    4.4090   -1.5774    0.0000 C   0  0  0  0  0  0  0  0  0  0  0  0
   -1.5866   -2.7110    0.0000 C   0  0  0  0  0  0  0  0  0  0  0  0
    5.3680   -2.7308    0.0000 C   0  0  0  0  0  0  0  0  0  0  0  0
   -2.3308   -1.4086    0.0000 C   0  0  0  0  0  0  0  0  0  0  0  0
   -2.3424   -4.0067    0.0000 C   0  0  0  0  0  0  0  0  0  0  0  0
    6.8463   -2.4769    0.0000 C   0  0  0  0  0  0  0  0  0  0  0  0
   -3.8308   -1.4019    0.0000 C   0  0  0  0  0  0  0  0  0  0  0  0
    7.3657   -1.0697    0.0000 C   0  0  0  0  0  0  0  0  0  0  0  0
    7.8054   -3.6303    0.0000 C   0  0  0  0  0  0  0  0  0  0  0  0
   -4.5750   -0.0995    0.0000 C   0  0  0  0  0  0  0  0  0  0  0  0
    8.8440   -0.8158    0.0000 C   0  0  0  0  0  0  0  0  0  0  0  0
   -6.0749   -0.0928    0.0000 C   0  0  0  0  0  0  0  0  0  0  0  0
    9.3634    0.5914    0.0000 C   0  0  0  0  0  0  0  0  0  0  0  0
   -6.8307   -1.3885    0.0000 C   0  0  0  0  0  0  0  0  0  0  0  0
   -6.8191    1.2096    0.0000 C   0  0  0  0  0  0  0  0  0  0  0  0
   10.8417    0.8453    0.0000 C   0  0  0  0  0  0  0  0  0  0  0  0
   -8.3307   -1.3818    0.0000 C   0  0  0  0  0  0  0  0  0  0  0  0
   11.8008   -0.3081    0.0000 C   0  0  0  0  0  0  0  0  0  0  0  0
   11.3611    2.2525    0.0000 C   0  0  0  0  0  0  0  0  0  0  0  0
   -9.0865   -2.6774    0.0000 C   0  0  0  0  0  0  0  0  0  0  0  0
   13.2791   -0.0542    0.0000 C   0  0  0  0  0  0  0  0  0  0  0  0
  -10.5865   -2.6707    0.0000 C   0  0  0  0  0  0  0  0  0  0  0  0
   14.2382   -1.2076    0.0000 C   0  0  0  0  0  0  0  0  0  0  0  0
  -11.3307   -1.3683    0.0000 C   0  0  0  0  0  0  0  0  0  0  0  0
  -11.3423   -3.9664    0.0000 C   0  0  0  0  0  0  0  0  0  0  0  0
   15.7165   -0.9538    0.0000 C   0  0  0  0  0  0  0  0  0  0  0  0
  -12.8307   -1.3616    0.0000 C   0  0  0  0  0  0  0  0  0  0  0  0
   16.6755   -2.1071    0.0000 C   0  0  0  0  0  0  0  0  0  0  0  0
   16.2359    0.4535    0.0000 C   0  0  0  0  0  0  0  0  0  0  0  0
  -13.5749   -0.0592    0.0000 C   0  0  0  0  0  0  0  0  0  0  0  0
  -15.0748   -0.0525    0.0000 C   0  0  0  0  0  0  0  0  0  0  0  0
  -15.8190    1.2499    0.0000 C   0  0  0  0  0  0  0  0  0  0  0  0
  -15.8307   -1.3482    0.0000 C   0  0  0  0  0  0  0  0  0  0  0  0
  1  3  1  0
  1  4  1  0
  1  5  1  0
  1  6  2  0
  2  4  1  0
  2  7  1  0
  2  8  1  0
  2  9  2  0
  3 15  1  0
 10 11  1  0
 10 12  1  0
 10 13  1  0
 10 14  1  0
 11 12  1  0
 11 15  1  0
 12 16  1  0
 13 17  1  0
 16 18  2  3
 17 19  1  0
 18 20  1  0
 18 21  1  0
 19 22  2  3
 20 23  1  0
 22 24  1  0
 22 25  1  0
 23 26  1  0
 24 27  1  0
 26 28  2  3
 27 29  1  0
 28 30  1  0
 28 31  1  0
 29 32  2  3
 30 33  1  0
 32 34  1  0
 32 35  1  0
 33 36  1  0
 34 37  1  0
 36 38  2  3
 37 39  1  0
 38 40  1  0
 38 41  1  0
 39 42  2  3
 40 43  1  0
 42 44  1  0
 42 45  1  0
 43 46  1  0
 46 47  2  3
 47 48  1  0
 47 49  1  0
M  END
>  <PUBCHEM_COMPOUND_CID>  (1) 
467

>  <PUBCHEM_COMPOUND_CANONICALIZED>  (1) 
1

>  <PUBCHEM_CACTVS_COMPLEXITY>  (1) 
1350

>  <PUBCHEM_CACTVS_HBOND_ACCEPTOR>  (1) 
7

>  <PUBCHEM_CACTVS_HBOND_DONOR>  (1) 
3

>  <PUBCHEM_CACTVS_ROTATABLE_BOND>  (1) 
24

>  <PUBCHEM_CACTVS_SUBSKEYS>  (1) 
AAADcfB8OAMAAAAAAAAAAAAAGAAAAAAAAAAAAAAAAAAAAAAAAAAAGgAACCAADwCggAICAAAAARCAQiBCAIAAAAAgAAAACAAAAAgAAAIAAQAAAAAEgAAIAAOAwCAPgAAAAAAAAAAAAAAAAAAAAAAAAAAAAA==

>  <PUBCHEM_IUPAC_OPENEYE_NAME>  (1) 
[2-methyl-3-(2,6,10,14-tetramethylpentadeca-1,5,9,13-tetraenyl)-2-(4,8,12-trimethyltrideca-3,7,11-trienyl)cyclopropyl]methyl phosphono hydrogen phosphate

>  <PUBCHEM_IUPAC_CAS_NAME>  (1) 
[2-methyl-3-(2,6,10,14-tetramethylpentadeca-1,5,9,13-tetraenyl)-2-(4,8,12-trimethyltrideca-3,7,11-trienyl)cyclopropyl]methyl phosphono hydrogen phosphate

>  <PUBCHEM_IUPAC_NAME_MARKUP>  (1) 
[2-methyl-3-(2,6,10,14-tetramethylpentadeca-1,5,9,13-tetraenyl)-2-(4,8,12-trimethyltrideca-3,7,11-trienyl)cyclopropyl]methyl phosphono hydrogen phosphate

>  <PUBCHEM_IUPAC_NAME>  (1) 
[2-methyl-3-(2,6,10,14-tetramethylpentadeca-1,5,9,13-tetraenyl)-2-(4,8,12-trimethyltrideca-3,7,11-trienyl)cyclopropyl]methyl phosphono hydrogen phosphate

>  <PUBCHEM_IUPAC_SYSTEMATIC_NAME>  (1) 
[2-methyl-3-(2,6,10,14-tetramethylpentadeca-1,5,9,13-tetraenyl)-2-(4,8,12-trimethyltrideca-3,7,11-trienyl)cyclopropyl]methyl phosphono hydrogen phosphate

>  <PUBCHEM_IUPAC_TRADITIONAL_NAME>  (1) 
[2-methyl-3-(2,6,10,14-tetramethylpentadeca-1,5,9,13-tetraenyl)-2-(4,8,12-trimethyltrideca-3,7,11-trienyl)cyclopropyl]methyl phosphono hydrogen phosphate

>  <PUBCHEM_IUPAC_INCHI>  (1) 
InChI=1S/C40H68O7P2/c1-31(2)17-11-19-33(5)21-13-23-35(7)25-15-26-37(9)29-38-39(30-46-49(44,45)47-48(41,42)43)40(38,10)28-16-27-36(8)24-14-22-34(6)20-12-18-32(3)4/h17-18,21-22,25,27,29,38-39H,11-16,19-20,23-24,26,28,30H2,1-10H3,(H,44,45)(H2,41,42,43)

>  <PUBCHEM_IUPAC_INCHIKEY>  (1) 
RVCNKTPCHZNAAO-UHFFFAOYSA-N

>  <PUBCHEM_XLOGP3_AA>  (1) 
11.6

>  <PUBCHEM_EXACT_MASS>  (1) 
722.444029

>  <PUBCHEM_MOLECULAR_FORMULA>  (1) 
C40H68O7P2

>  <PUBCHEM_MOLECULAR_WEIGHT>  (1) 
722.9

>  <PUBCHEM_OPENEYE_CAN_SMILES>  (1) 
CC(=CCCC(=CCCC(=CCCC(=CC1C(C1(C)CCC=C(C)CCC=C(C)CCC=C(C)C)COP(=O)(O)OP(=O)(O)O)C)C)C)C

>  <PUBCHEM_OPENEYE_ISO_SMILES>  (1) 
CC(=CCCC(=CCCC(=CCCC(=CC1C(C1(C)CCC=C(C)CCC=C(C)CCC=C(C)C)COP(=O)(O)OP(=O)(O)O)C)C)C)C

>  <PUBCHEM_CACTVS_TPSA>  (1) 
113

>  <PUBCHEM_MONOISOTOPIC_WEIGHT>  (1) 
722.444029

>  <PUBCHEM_TOTAL_CHARGE>  (1) 
0

>  <PUBCHEM_HEAVY_ATOM_COUNT>  (1) 
49

>  <PUBCHEM_ATOM_DEF_STEREO_COUNT>  (1) 
0

>  <PUBCHEM_ATOM_UDEF_STEREO_COUNT>  (1) 
3

>  <PUBCHEM_BOND_DEF_STEREO_COUNT>  (1) 
0

>  <PUBCHEM_BOND_UDEF_STEREO_COUNT>  (1) 
5

>  <PUBCHEM_ISOTOPIC_ATOM_COUNT>  (1) 
0

>  <PUBCHEM_COMPONENT_COUNT>  (1) 
1

>  <PUBCHEM_CACTVS_TAUTO_COUNT>  (1) 
-1

>  <PUBCHEM_COORDINATE_TYPE>  (1) 
1
5
255

>  <PUBCHEM_BONDANNOTATIONS>  (1) 
10  14  3
11  15  3
12  16  3
16  18  1
19  22  1
26  28  1
29  32  1
36  38  1

$$$$
