468
     RDKit          2D

 39 39  0  0  1  0  0  0  0  0999 V2000
    0.1496    3.8360    0.0000 P   0  0  0  0  0  0  0  0  0  0  0  0
   -2.0493    5.2198    0.0000 P   0  0  0  0  0  0  0  0  0  0  0  0
    0.8496    2.5093    0.0000 O   0  0  0  0  0  0  0  0  0  0  0  0
   -0.5504    5.1626    0.0000 O   0  0  0  0  0  0  0  0  0  0  0  0
    1.4763    4.5360    0.0000 O   0  0  0  0  0  0  0  0  0  0  0  0
   -1.1770    3.1360    0.0000 O   0  0  0  0  0  0  0  0  0  0  0  0
   -2.1064    3.7208    0.0000 O   0  0  0  0  0  0  0  0  0  0  0  0
   -3.5482    5.2769    0.0000 O   0  0  0  0  0  0  0  0  0  0  0  0
   -1.9922    6.7187    0.0000 O   0  0  0  0  0  0  0  0  0  0  0  0
    2.0203   -0.8858    0.0000 C   0  0  0  0  0  0  0  0  0  0  0  0
    0.7507   -0.0868    0.0000 C   0  0  0  0  0  0  0  0  0  0  0  0
    0.6936   -1.5858    0.0000 C   0  0  0  0  0  0  0  0  0  0  0  0
    2.9400   -2.0707    0.0000 C   0  0  0  0  0  0  0  0  0  0  0  0
    3.0275    0.2258    0.0000 C   0  0  0  0  0  0  0  0  0  0  0  0
    0.0507    1.2398    0.0000 C   0  0  0  0  0  0  0  0  0  0  0  0
   -0.1053   -2.8553    0.0000 C   0  0  0  0  0  0  0  0  0  0  0  0
    4.4261   -1.8666    0.0000 C   0  0  0  0  0  0  0  0  0  0  0  0
   -1.6042   -2.7982    0.0000 C   0  0  0  0  0  0  0  0  0  0  0  0
    5.3458   -3.0516    0.0000 C   0  0  0  0  0  0  0  0  0  0  0  0
   -2.3042   -1.4715    0.0000 C   0  0  0  0  0  0  0  0  0  0  0  0
   -2.4031   -4.0677    0.0000 C   0  0  0  0  0  0  0  0  0  0  0  0
    6.8318   -2.8475    0.0000 C   0  0  0  0  0  0  0  0  0  0  0  0
   -3.8031   -1.4144    0.0000 C   0  0  0  0  0  0  0  0  0  0  0  0
    7.3982   -1.4586    0.0000 C   0  0  0  0  0  0  0  0  0  0  0  0
    7.7516   -4.0325    0.0000 C   0  0  0  0  0  0  0  0  0  0  0  0
   -4.5031   -0.0878    0.0000 C   0  0  0  0  0  0  0  0  0  0  0  0
    8.8842   -1.2545    0.0000 C   0  0  0  0  0  0  0  0  0  0  0  0
   -6.0020   -0.0307    0.0000 C   0  0  0  0  0  0  0  0  0  0  0  0
    9.4505    0.1345    0.0000 C   0  0  0  0  0  0  0  0  0  0  0  0
   -6.8010   -1.3002    0.0000 C   0  0  0  0  0  0  0  0  0  0  0  0
   -6.7020    1.2960    0.0000 C   0  0  0  0  0  0  0  0  0  0  0  0
   10.9366    0.3385    0.0000 C   0  0  0  0  0  0  0  0  0  0  0  0
   -8.2999   -1.2431    0.0000 C   0  0  0  0  0  0  0  0  0  0  0  0
   11.5029    1.7275    0.0000 C   0  0  0  0  0  0  0  0  0  0  0  0
   11.8563   -0.8464    0.0000 C   0  0  0  0  0  0  0  0  0  0  0  0
   -9.0988   -2.5127    0.0000 C   0  0  0  0  0  0  0  0  0  0  0  0
  -10.5977   -2.4556    0.0000 C   0  0  0  0  0  0  0  0  0  0  0  0
  -11.3966   -3.7251    0.0000 C   0  0  0  0  0  0  0  0  0  0  0  0
  -11.2977   -1.1289    0.0000 C   0  0  0  0  0  0  0  0  0  0  0  0
  1  3  1  0
  1  4  1  0
  1  5  1  0
  1  6  2  0
  2  4  1  0
  2  7  1  0
  2  8  1  0
  2  9  2  0
  3 15  1  0
 10 11  1  0
 10 12  1  0
 10 13  1  0
 10 14  1  0
 11 12  1  0
 11 15  1  0
 12 16  1  0
 13 17  1  0
 16 18  2  3
 17 19  1  0
 18 20  1  0
 18 21  1  0
 19 22  2  3
 20 23  1  0
 22 24  1  0
 22 25  1  0
 23 26  1  0
 24 27  1  0
 26 28  2  3
 27 29  1  0
 28 30  1  0
 28 31  1  0
 29 32  2  3
 30 33  1  0
 32 34  1  0
 32 35  1  0
 33 36  1  0
 36 37  2  3
 37 38  1  0
 37 39  1  0
M  END
>  <PUBCHEM_COMPOUND_CID>  (1) 
468

>  <PUBCHEM_COMPOUND_CANONICALIZED>  (1) 
1

>  <PUBCHEM_CACTVS_COMPLEXITY>  (1) 
1040

>  <PUBCHEM_CACTVS_HBOND_ACCEPTOR>  (1) 
7

>  <PUBCHEM_CACTVS_HBOND_DONOR>  (1) 
3

>  <PUBCHEM_CACTVS_ROTATABLE_BOND>  (1) 
18

>  <PUBCHEM_CACTVS_SUBSKEYS>  (1) 
AAADcfB4OAMAAAAAAAAAAAAAGAAAAAAAAAAAAAAAAAAAAAAAAAAAGgAACCAADwCggAICAAAAARCAQiBCAIAAAAAgAAAACAAAAAgAAAIAAQAAAAAEgAAIAAOAwCAPgAAAAAAAAAAAAAAAAAAAAAAAAAAAAA==

>  <PUBCHEM_IUPAC_OPENEYE_NAME>  (1) 
[2-(4,8-dimethylnona-3,7-dienyl)-2-methyl-3-(2,6,10-trimethylundeca-1,5,9-trienyl)cyclopropyl]methyl phosphono hydrogen phosphate

>  <PUBCHEM_IUPAC_CAS_NAME>  (1) 
[2-(4,8-dimethylnona-3,7-dienyl)-2-methyl-3-(2,6,10-trimethylundeca-1,5,9-trienyl)cyclopropyl]methyl phosphono hydrogen phosphate

>  <PUBCHEM_IUPAC_NAME_MARKUP>  (1) 
[2-(4,8-dimethylnona-3,7-dienyl)-2-methyl-3-(2,6,10-trimethylundeca-1,5,9-trienyl)cyclopropyl]methyl phosphono hydrogen phosphate

>  <PUBCHEM_IUPAC_NAME>  (1) 
[2-(4,8-dimethylnona-3,7-dienyl)-2-methyl-3-(2,6,10-trimethylundeca-1,5,9-trienyl)cyclopropyl]methyl phosphono hydrogen phosphate

>  <PUBCHEM_IUPAC_SYSTEMATIC_NAME>  (1) 
[2-(4,8-dimethylnona-3,7-dienyl)-2-methyl-3-(2,6,10-trimethylundeca-1,5,9-trienyl)cyclopropyl]methyl phosphono hydrogen phosphate

>  <PUBCHEM_IUPAC_TRADITIONAL_NAME>  (1) 
[2-(4,8-dimethylnona-3,7-dienyl)-2-methyl-3-(2,6,10-trimethylundeca-1,5,9-trienyl)cyclopropyl]methyl phosphono hydrogen phosphate

>  <PUBCHEM_IUPAC_INCHI>  (1) 
InChI=1S/C30H52O7P2/c1-23(2)13-9-15-25(5)17-11-18-27(7)21-28-29(22-36-39(34,35)37-38(31,32)33)30(28,8)20-12-19-26(6)16-10-14-24(3)4/h13-14,17,19,21,28-29H,9-12,15-16,18,20,22H2,1-8H3,(H,34,35)(H2,31,32,33)

>  <PUBCHEM_IUPAC_INCHIKEY>  (1) 
ATZKAUGGNMSCCY-UHFFFAOYSA-N

>  <PUBCHEM_XLOGP3_AA>  (1) 
7.9

>  <PUBCHEM_EXACT_MASS>  (1) 
586.318828

>  <PUBCHEM_MOLECULAR_FORMULA>  (1) 
C30H52O7P2

>  <PUBCHEM_MOLECULAR_WEIGHT>  (1) 
586.7

>  <PUBCHEM_OPENEYE_CAN_SMILES>  (1) 
CC(=CCCC(=CCCC(=CC1C(C1(C)CCC=C(C)CCC=C(C)C)COP(=O)(O)OP(=O)(O)O)C)C)C

>  <PUBCHEM_OPENEYE_ISO_SMILES>  (1) 
CC(=CCCC(=CCCC(=CC1C(C1(C)CCC=C(C)CCC=C(C)C)COP(=O)(O)OP(=O)(O)O)C)C)C

>  <PUBCHEM_CACTVS_TPSA>  (1) 
113

>  <PUBCHEM_MONOISOTOPIC_WEIGHT>  (1) 
586.318828

>  <PUBCHEM_TOTAL_CHARGE>  (1) 
0

>  <PUBCHEM_HEAVY_ATOM_COUNT>  (1) 
39

>  <PUBCHEM_ATOM_DEF_STEREO_COUNT>  (1) 
0

>  <PUBCHEM_ATOM_UDEF_STEREO_COUNT>  (1) 
3

>  <PUBCHEM_BOND_DEF_STEREO_COUNT>  (1) 
0

>  <PUBCHEM_BOND_UDEF_STEREO_COUNT>  (1) 
3

>  <PUBCHEM_ISOTOPIC_ATOM_COUNT>  (1) 
0

>  <PUBCHEM_COMPONENT_COUNT>  (1) 
1

>  <PUBCHEM_CACTVS_TAUTO_COUNT>  (1) 
-1

>  <PUBCHEM_COORDINATE_TYPE>  (1) 
1
5
255

>  <PUBCHEM_BONDANNOTATIONS>  (1) 
10  14  3
11  15  3
12  16  3
16  18  1
19  22  1
26  28  1

$$$$
