47
     RDKit          2D

  9  8  0  0  1  0  0  0  0  0999 V2000
    0.0000    2.3333    0.0000 O   0  0  0  0  0  0  0  0  0  0  0  0
    2.5981    0.8333    0.0000 O   0  0  0  0  0  0  0  0  0  0  0  0
    1.2990   -1.4167    0.0000 O   0  0  0  0  0  0  0  0  0  0  0  0
   -1.2990    0.0833    0.0000 C   0  0  0  0  0  0  0  0  0  0  0  0
   -1.2990   -1.4167    0.0000 C   0  0  0  0  0  0  0  0  0  0  0  0
   -2.5981    0.8333    0.0000 C   0  0  0  0  0  0  0  0  0  0  0  0
    0.0000    0.8333    0.0000 C   0  0  0  0  0  0  0  0  0  0  0  0
   -0.0000   -2.1667    0.0000 C   0  0  0  0  0  0  0  0  0  0  0  0
    1.2990    0.0833    0.0000 C   0  0  0  0  0  0  0  0  0  0  0  0
  1  7  2  0
  2  9  1  0
  3  9  2  0
  4  5  1  0
  4  6  1  0
  4  7  1  0
  5  8  1  0
  7  9  1  0
M  END
>  <PUBCHEM_COMPOUND_CID>  (1) 
47

>  <PUBCHEM_COMPOUND_CANONICALIZED>  (1) 
1

>  <PUBCHEM_CACTVS_COMPLEXITY>  (1) 
128

>  <PUBCHEM_CACTVS_HBOND_ACCEPTOR>  (1) 
3

>  <PUBCHEM_CACTVS_HBOND_DONOR>  (1) 
1

>  <PUBCHEM_CACTVS_ROTATABLE_BOND>  (1) 
3

>  <PUBCHEM_CACTVS_SUBSKEYS>  (1) 
AAADccBgMAAAAAAAAAAAAAAAAAAAAAAAAAAAAAAAAAAAAAAAAAAAGgAACAAADQSAgAACCAAAAgAIAICQCAIAAAAAAAAAAAFAAAAAABIAAAAAQAAEAAAAAACIAAAKAAAAAAAAAAAAAAAAAAAAAAAAAAAAAA==

>  <PUBCHEM_IUPAC_OPENEYE_NAME>  (1) 
3-methyl-2-oxo-pentanoic acid

>  <PUBCHEM_IUPAC_CAS_NAME>  (1) 
3-methyl-2-oxopentanoic acid

>  <PUBCHEM_IUPAC_NAME_MARKUP>  (1) 
3-methyl-2-oxopentanoic acid

>  <PUBCHEM_IUPAC_NAME>  (1) 
3-methyl-2-oxopentanoic acid

>  <PUBCHEM_IUPAC_SYSTEMATIC_NAME>  (1) 
3-methyl-2-oxidanylidene-pentanoic acid

>  <PUBCHEM_IUPAC_TRADITIONAL_NAME>  (1) 
2-keto-3-methyl-valeric acid

>  <PUBCHEM_IUPAC_INCHI>  (1) 
InChI=1S/C6H10O3/c1-3-4(2)5(7)6(8)9/h4H,3H2,1-2H3,(H,8,9)

>  <PUBCHEM_IUPAC_INCHIKEY>  (1) 
JVQYSWDUAOAHFM-UHFFFAOYSA-N

>  <PUBCHEM_XLOGP3_AA>  (1) 
1.1

>  <PUBCHEM_EXACT_MASS>  (1) 
130.062994

>  <PUBCHEM_MOLECULAR_FORMULA>  (1) 
C6H10O3

>  <PUBCHEM_MOLECULAR_WEIGHT>  (1) 
130.14

>  <PUBCHEM_OPENEYE_CAN_SMILES>  (1) 
CCC(C)C(=O)C(=O)O

>  <PUBCHEM_OPENEYE_ISO_SMILES>  (1) 
CCC(C)C(=O)C(=O)O

>  <PUBCHEM_CACTVS_TPSA>  (1) 
54.4

>  <PUBCHEM_MONOISOTOPIC_WEIGHT>  (1) 
130.062994

>  <PUBCHEM_TOTAL_CHARGE>  (1) 
0

>  <PUBCHEM_HEAVY_ATOM_COUNT>  (1) 
9

>  <PUBCHEM_ATOM_DEF_STEREO_COUNT>  (1) 
0

>  <PUBCHEM_ATOM_UDEF_STEREO_COUNT>  (1) 
1

>  <PUBCHEM_BOND_DEF_STEREO_COUNT>  (1) 
0

>  <PUBCHEM_BOND_UDEF_STEREO_COUNT>  (1) 
0

>  <PUBCHEM_ISOTOPIC_ATOM_COUNT>  (1) 
0

>  <PUBCHEM_COMPONENT_COUNT>  (1) 
1

>  <PUBCHEM_CACTVS_TAUTO_COUNT>  (1) 
-1

>  <PUBCHEM_COORDINATE_TYPE>  (1) 
1
5
255

>  <PUBCHEM_BONDANNOTATIONS>  (1) 
4  6  3

$$$$
