471
     RDKit          2D

 22 24  0  0  1  0  0  0  0  0999 V2000
    0.3194    0.9811    0.0000 O   0  0  0  0  0  0  0  0  0  0  0  0
   -0.7448   -2.8422    0.0000 O   0  0  0  0  0  0  0  0  0  0  0  0
    2.2453   -3.0860    0.0000 O   0  0  0  0  0  0  0  0  0  0  0  0
    4.5934   -1.9741    0.0000 O   0  0  0  0  0  0  0  0  0  0  0  0
    5.0157    3.2049    0.0000 O   0  0  0  0  0  0  0  0  0  0  0  0
   -4.8076    2.7025    0.0000 O   0  0  0  0  0  0  0  0  0  0  0  0
   -6.5138    0.2349    0.0000 O   0  0  0  0  0  0  0  0  0  0  0  0
   -0.5337   -0.2527    0.0000 C   0  0  0  0  0  0  0  0  0  0  0  0
    0.1083   -1.6084    0.0000 C   0  0  0  0  0  0  0  0  0  0  0  0
   -2.0287   -0.1308    0.0000 C   0  0  0  0  0  0  0  0  0  0  0  0
    1.6033   -1.7303    0.0000 C   0  0  0  0  0  0  0  0  0  0  0  0
    2.4564   -0.4965    0.0000 C   0  0  0  0  0  0  0  0  0  0  0  0
    1.8145    0.8592    0.0000 C   0  0  0  0  0  0  0  0  0  0  0  0
    3.9514   -0.6184    0.0000 C   0  0  0  0  0  0  0  0  0  0  0  0
   -2.6707    1.2249    0.0000 C   0  0  0  0  0  0  0  0  0  0  0  0
   -2.8818   -1.3646    0.0000 C   0  0  0  0  0  0  0  0  0  0  0  0
    2.6676    2.0930    0.0000 C   0  0  0  0  0  0  0  0  0  0  0  0
    4.8045    0.6154    0.0000 C   0  0  0  0  0  0  0  0  0  0  0  0
    4.1626    1.9711    0.0000 C   0  0  0  0  0  0  0  0  0  0  0  0
   -4.1657    1.3468    0.0000 C   0  0  0  0  0  0  0  0  0  0  0  0
   -4.3768   -1.2427    0.0000 C   0  0  0  0  0  0  0  0  0  0  0  0
   -5.0188    0.1130    0.0000 C   0  0  0  0  0  0  0  0  0  0  0  0
  1  8  1  0
  1 13  1  0
  2  9  1  0
  3 11  2  0
  4 14  1  0
  5 19  1  0
  6 20  1  0
  7 22  1  0
  8  9  1  0
  8 10  1  0
  9 11  1  0
 10 15  2  0
 10 16  1  0
 11 12  1  0
 12 13  2  0
 12 14  1  0
 13 17  1  0
 14 18  2  0
 15 20  1  0
 16 21  2  0
 17 19  2  0
 18 19  1  0
 20 22  2  0
 21 22  1  0
M  END
>  <PUBCHEM_COMPOUND_CID>  (1) 
471

>  <PUBCHEM_COMPOUND_CANONICALIZED>  (1) 
1

>  <PUBCHEM_CACTVS_COMPLEXITY>  (1) 
428

>  <PUBCHEM_CACTVS_HBOND_ACCEPTOR>  (1) 
7

>  <PUBCHEM_CACTVS_HBOND_DONOR>  (1) 
5

>  <PUBCHEM_CACTVS_ROTATABLE_BOND>  (1) 
1

>  <PUBCHEM_CACTVS_SUBSKEYS>  (1) 
AAADccBwOAAAAAAAAAAAAAAAAAAAAAAAAAA0YIAAAAAAAACRQAAAGgAACAAADBSgmAIwBoAABgCIAqBSAAICCAAkIAAIiAFGiMgNNzaGNRqCeWGl4BULuQfI7PzOIAABCAAIQABAAAIQABCAAAAAAAAAAA==

>  <PUBCHEM_IUPAC_OPENEYE_NAME>  (1) 
2-(3,4-dihydroxyphenyl)-3,5,7-trihydroxy-chroman-4-one

>  <PUBCHEM_IUPAC_CAS_NAME>  (1) 
2-(3,4-dihydroxyphenyl)-3,5,7-trihydroxy-3,4-dihydro-2H-1-benzopyran-4-one

>  <PUBCHEM_IUPAC_NAME_MARKUP>  (1) 
2-(3,4-dihydroxyphenyl)-3,5,7-trihydroxy-2,3-dihydrochromen-4-one

>  <PUBCHEM_IUPAC_NAME>  (1) 
2-(3,4-dihydroxyphenyl)-3,5,7-trihydroxy-2,3-dihydrochromen-4-one

>  <PUBCHEM_IUPAC_SYSTEMATIC_NAME>  (1) 
2-[3,4-bis(oxidanyl)phenyl]-3,5,7-tris(oxidanyl)-2,3-dihydrochromen-4-one

>  <PUBCHEM_IUPAC_TRADITIONAL_NAME>  (1) 
2-(3,4-dihydroxyphenyl)-3,5,7-trihydroxy-chroman-4-one

>  <PUBCHEM_IUPAC_INCHI>  (1) 
InChI=1S/C15H12O7/c16-7-4-10(19)12-11(5-7)22-15(14(21)13(12)20)6-1-2-8(17)9(18)3-6/h1-5,14-19,21H

>  <PUBCHEM_IUPAC_INCHIKEY>  (1) 
CXQWRCVTCMQVQX-UHFFFAOYSA-N

>  <PUBCHEM_XLOGP3_AA>  (1) 
1.5

>  <PUBCHEM_EXACT_MASS>  (1) 
304.058303

>  <PUBCHEM_MOLECULAR_FORMULA>  (1) 
C15H12O7

>  <PUBCHEM_MOLECULAR_WEIGHT>  (1) 
304.25

>  <PUBCHEM_OPENEYE_CAN_SMILES>  (1) 
C1=CC(=C(C=C1C2C(C(=O)C3=C(C=C(C=C3O2)O)O)O)O)O

>  <PUBCHEM_OPENEYE_ISO_SMILES>  (1) 
C1=CC(=C(C=C1C2C(C(=O)C3=C(C=C(C=C3O2)O)O)O)O)O

>  <PUBCHEM_CACTVS_TPSA>  (1) 
127

>  <PUBCHEM_MONOISOTOPIC_WEIGHT>  (1) 
304.058303

>  <PUBCHEM_TOTAL_CHARGE>  (1) 
0

>  <PUBCHEM_HEAVY_ATOM_COUNT>  (1) 
22

>  <PUBCHEM_ATOM_DEF_STEREO_COUNT>  (1) 
0

>  <PUBCHEM_ATOM_UDEF_STEREO_COUNT>  (1) 
2

>  <PUBCHEM_BOND_DEF_STEREO_COUNT>  (1) 
0

>  <PUBCHEM_BOND_UDEF_STEREO_COUNT>  (1) 
0

>  <PUBCHEM_ISOTOPIC_ATOM_COUNT>  (1) 
0

>  <PUBCHEM_COMPONENT_COUNT>  (1) 
1

>  <PUBCHEM_CACTVS_TAUTO_COUNT>  (1) 
-1

>  <PUBCHEM_COORDINATE_TYPE>  (1) 
1
5
255

>  <PUBCHEM_BONDANNOTATIONS>  (1) 
10  15  8
10  16  8
12  13  8
12  14  8
13  17  8
14  18  8
15  20  8
16  21  8
17  19  8
18  19  8
9  2  3
20  22  8
21  22  8
8  10  3

$$$$
