473
     RDKit          2D

  9  8  0  0  0  0  0  0  0  0999 V2000
   -3.0029    0.5864    0.0000 S   0  0  0  0  0  0  0  0  0  0  0  0
    0.7616   -1.8791    0.0000 O   0  0  0  0  0  0  0  0  0  0  0  0
    3.4399   -0.5275    0.0000 O   0  0  0  0  0  0  0  0  0  0  0  0
    2.2694    1.7919    0.0000 O   0  0  0  0  0  0  0  0  0  0  0  0
   -0.4089    0.4403    0.0000 C   0  0  0  0  0  0  0  0  0  0  0  0
   -1.7480   -0.2354    0.0000 C   0  0  0  0  0  0  0  0  0  0  0  0
    0.8459   -0.3815    0.0000 C   0  0  0  0  0  0  0  0  0  0  0  0
   -4.3420   -0.0894    0.0000 C   0  0  0  0  0  0  0  0  0  0  0  0
    2.1851    0.2943    0.0000 C   0  0  0  0  0  0  0  0  0  0  0  0
  1  6  1  0
  1  8  1  0
  2  7  2  0
  3  9  1  0
  4  9  2  0
  5  6  1  0
  5  7  1  0
  7  9  1  0
M  END
>  <PUBCHEM_COMPOUND_CID>  (1) 
473

>  <PUBCHEM_COMPOUND_CANONICALIZED>  (1) 
1

>  <PUBCHEM_CACTVS_COMPLEXITY>  (1) 
121

>  <PUBCHEM_CACTVS_HBOND_ACCEPTOR>  (1) 
4

>  <PUBCHEM_CACTVS_HBOND_DONOR>  (1) 
1

>  <PUBCHEM_CACTVS_ROTATABLE_BOND>  (1) 
4

>  <PUBCHEM_CACTVS_SUBSKEYS>  (1) 
AAADccBgMABAAAAAAAAAAAAAAAAAAAAAAAAAAAAAAAAAAAAAAAAAGgQACAAACASEwACCCAAAAggIAICQCAIAAAAAABAAAAFAAAAAABAgAAAAQAAEAAAAAAAAAAAAAAAAAAAAAAAAAAAAAAAAAAAAAAAAAA==

>  <PUBCHEM_IUPAC_OPENEYE_NAME>  (1) 
4-methylsulfanyl-2-oxo-butanoic acid

>  <PUBCHEM_IUPAC_CAS_NAME>  (1) 
4-(methylthio)-2-oxobutanoic acid

>  <PUBCHEM_IUPAC_NAME_MARKUP>  (1) 
4-methylsulfanyl-2-oxobutanoic acid

>  <PUBCHEM_IUPAC_NAME>  (1) 
4-methylsulfanyl-2-oxobutanoic acid

>  <PUBCHEM_IUPAC_SYSTEMATIC_NAME>  (1) 
4-methylsulfanyl-2-oxidanylidene-butanoic acid

>  <PUBCHEM_IUPAC_TRADITIONAL_NAME>  (1) 
2-keto-4-(methylthio)butyric acid

>  <PUBCHEM_IUPAC_INCHI>  (1) 
InChI=1S/C5H8O3S/c1-9-3-2-4(6)5(7)8/h2-3H2,1H3,(H,7,8)

>  <PUBCHEM_IUPAC_INCHIKEY>  (1) 
SXFSQZDSUWACKX-UHFFFAOYSA-N

>  <PUBCHEM_XLOGP3_AA>  (1) 
0.3

>  <PUBCHEM_EXACT_MASS>  (1) 
148.019415

>  <PUBCHEM_MOLECULAR_FORMULA>  (1) 
C5H8O3S

>  <PUBCHEM_MOLECULAR_WEIGHT>  (1) 
148.18

>  <PUBCHEM_OPENEYE_CAN_SMILES>  (1) 
CSCCC(=O)C(=O)O

>  <PUBCHEM_OPENEYE_ISO_SMILES>  (1) 
CSCCC(=O)C(=O)O

>  <PUBCHEM_CACTVS_TPSA>  (1) 
79.7

>  <PUBCHEM_MONOISOTOPIC_WEIGHT>  (1) 
148.019415

>  <PUBCHEM_TOTAL_CHARGE>  (1) 
0

>  <PUBCHEM_HEAVY_ATOM_COUNT>  (1) 
9

>  <PUBCHEM_ATOM_DEF_STEREO_COUNT>  (1) 
0

>  <PUBCHEM_ATOM_UDEF_STEREO_COUNT>  (1) 
0

>  <PUBCHEM_BOND_DEF_STEREO_COUNT>  (1) 
0

>  <PUBCHEM_BOND_UDEF_STEREO_COUNT>  (1) 
0

>  <PUBCHEM_ISOTOPIC_ATOM_COUNT>  (1) 
0

>  <PUBCHEM_COMPONENT_COUNT>  (1) 
1

>  <PUBCHEM_CACTVS_TAUTO_COUNT>  (1) 
-1

>  <PUBCHEM_COORDINATE_TYPE>  (1) 
1
5
255

$$$$
