476
     RDKit          2D

 14 13  0  0  1  0  0  0  0  0999 V2000
    3.1622   -0.2008    0.0000 P   0  0  0  0  0  0  0  0  0  0  0  0
   -0.7767    2.2366    0.0000 O   0  0  0  0  0  0  0  0  0  0  0  0
    1.7102   -0.5773    0.0000 O   0  0  0  0  0  0  0  0  0  0  0  0
   -3.6078   -2.3715    0.0000 O   0  0  0  0  0  0  0  0  0  0  0  0
   -1.0929   -1.7194    0.0000 O   0  0  0  0  0  0  0  0  0  0  0  0
    2.7857    1.2511    0.0000 O   0  0  0  0  0  0  0  0  0  0  0  0
    4.6141    0.1757    0.0000 O   0  0  0  0  0  0  0  0  0  0  0  0
    3.5387   -1.6528    0.0000 O   0  0  0  0  0  0  0  0  0  0  0  0
   -1.8459    1.1846    0.0000 C   0  0  0  0  0  0  0  0  0  0  0  0
   -0.7939    0.1154    0.0000 C   0  0  0  0  0  0  0  0  0  0  0  0
   -2.9151    0.1325    0.0000 C   0  0  0  0  0  0  0  0  0  0  0  0
   -2.8980    2.2538    0.0000 C   0  0  0  0  0  0  0  0  0  0  0  0
    0.6581    0.4919    0.0000 C   0  0  0  0  0  0  0  0  0  0  0  0
   -2.5386   -1.3195    0.0000 C   0  0  0  0  0  0  0  0  0  0  0  0
  1  3  1  0
  1  6  1  0
  1  7  1  0
  1  8  2  0
  2  9  1  0
  3 13  1  0
  4 14  1  0
  5 14  2  0
  9 10  1  0
  9 11  1  0
  9 12  1  0
 10 13  1  0
 11 14  1  0
M  END
>  <PUBCHEM_COMPOUND_CID>  (1) 
476

>  <PUBCHEM_COMPOUND_CANONICALIZED>  (1) 
1

>  <PUBCHEM_CACTVS_COMPLEXITY>  (1) 
247

>  <PUBCHEM_CACTVS_HBOND_ACCEPTOR>  (1) 
7

>  <PUBCHEM_CACTVS_HBOND_DONOR>  (1) 
4

>  <PUBCHEM_CACTVS_ROTATABLE_BOND>  (1) 
6

>  <PUBCHEM_CACTVS_SUBSKEYS>  (1) 
AAADccBgOAIAAAAAAAAAAAAAAAAAAAAAAAAAAAAAAAAAAAAAAAAAGgAACCAADESggAICCAAAAxAIQACQCIAAAAAAAAAAAAEAAAAAABYAAAAAQAAFIAAAAACIJAAKAAAAAAAAAAAAAAAAAAAAAAAAAAAAAA==

>  <PUBCHEM_IUPAC_OPENEYE_NAME>  (1) 
3-hydroxy-3-methyl-5-phosphonooxy-pentanoic acid

>  <PUBCHEM_IUPAC_CAS_NAME>  (1) 
3-hydroxy-3-methyl-5-phosphonooxypentanoic acid

>  <PUBCHEM_IUPAC_NAME_MARKUP>  (1) 
3-hydroxy-3-methyl-5-phosphonooxypentanoic acid

>  <PUBCHEM_IUPAC_NAME>  (1) 
3-hydroxy-3-methyl-5-phosphonooxypentanoic acid

>  <PUBCHEM_IUPAC_SYSTEMATIC_NAME>  (1) 
3-methyl-3-oxidanyl-5-phosphonooxy-pentanoic acid

>  <PUBCHEM_IUPAC_TRADITIONAL_NAME>  (1) 
3-hydroxy-3-methyl-5-phosphonooxy-valeric acid

>  <PUBCHEM_IUPAC_INCHI>  (1) 
InChI=1S/C6H13O7P/c1-6(9,4-5(7)8)2-3-13-14(10,11)12/h9H,2-4H2,1H3,(H,7,8)(H2,10,11,12)

>  <PUBCHEM_IUPAC_INCHIKEY>  (1) 
OKZYCXHTTZZYSK-UHFFFAOYSA-N

>  <PUBCHEM_XLOGP3_AA>  (1) 
-2.1

>  <PUBCHEM_EXACT_MASS>  (1) 
228.03989

>  <PUBCHEM_MOLECULAR_FORMULA>  (1) 
C6H13O7P

>  <PUBCHEM_MOLECULAR_WEIGHT>  (1) 
228.14

>  <PUBCHEM_OPENEYE_CAN_SMILES>  (1) 
CC(CCOP(=O)(O)O)(CC(=O)O)O

>  <PUBCHEM_OPENEYE_ISO_SMILES>  (1) 
CC(CCOP(=O)(O)O)(CC(=O)O)O

>  <PUBCHEM_CACTVS_TPSA>  (1) 
124

>  <PUBCHEM_MONOISOTOPIC_WEIGHT>  (1) 
228.03989

>  <PUBCHEM_TOTAL_CHARGE>  (1) 
0

>  <PUBCHEM_HEAVY_ATOM_COUNT>  (1) 
14

>  <PUBCHEM_ATOM_DEF_STEREO_COUNT>  (1) 
0

>  <PUBCHEM_ATOM_UDEF_STEREO_COUNT>  (1) 
1

>  <PUBCHEM_BOND_DEF_STEREO_COUNT>  (1) 
0

>  <PUBCHEM_BOND_UDEF_STEREO_COUNT>  (1) 
0

>  <PUBCHEM_ISOTOPIC_ATOM_COUNT>  (1) 
0

>  <PUBCHEM_COMPONENT_COUNT>  (1) 
1

>  <PUBCHEM_CACTVS_TAUTO_COUNT>  (1) 
-1

>  <PUBCHEM_COORDINATE_TYPE>  (1) 
1
5
255

>  <PUBCHEM_BONDANNOTATIONS>  (1) 
9  2  3

$$$$
