479
     RDKit          2D

 18 17  0  0  1  0  0  0  0  0999 V2000
    8.5092   -0.3392    0.0000 S   0  0  0  0  0  0  0  0  0  0  0  0
   -3.0833    2.3747    0.0000 O   0  0  0  0  0  0  0  0  0  0  0  0
   -5.8585   -2.0182    0.0000 O   0  0  0  0  0  0  0  0  0  0  0  0
   -1.9346   -1.4241    0.0000 O   0  0  0  0  0  0  0  0  0  0  0  0
    3.2574   -1.6310    0.0000 O   0  0  0  0  0  0  0  0  0  0  0  0
   -0.5470    0.7724    0.0000 N   0  0  0  0  0  0  0  0  0  0  0  0
    4.6450    0.5654    0.0000 N   0  0  0  0  0  0  0  0  0  0  0  0
   -4.4709    0.1782    0.0000 C   0  0  0  0  0  0  0  0  0  0  0  0
   -3.1430    0.8759    0.0000 C   0  0  0  0  0  0  0  0  0  0  0  0
   -5.7988   -0.5194    0.0000 C   0  0  0  0  0  0  0  0  0  0  0  0
   -5.1686    1.5061    0.0000 C   0  0  0  0  0  0  0  0  0  0  0  0
   -3.7733   -1.1497    0.0000 C   0  0  0  0  0  0  0  0  0  0  0  0
   -1.8749    0.0747    0.0000 C   0  0  0  0  0  0  0  0  0  0  0  0
    0.7211   -0.0287    0.0000 C   0  0  0  0  0  0  0  0  0  0  0  0
    2.0490    0.6689    0.0000 C   0  0  0  0  0  0  0  0  0  0  0  0
    3.3171   -0.1322    0.0000 C   0  0  0  0  0  0  0  0  0  0  0  0
    5.9131   -0.2357    0.0000 C   0  0  0  0  0  0  0  0  0  0  0  0
    7.2410    0.4619    0.0000 C   0  0  0  0  0  0  0  0  0  0  0  0
  1 18  1  0
  2  9  1  0
  3 10  1  0
  4 13  2  0
  5 16  2  0
  6 13  1  0
  6 14  1  0
  7 16  1  0
  7 17  1  0
  8  9  1  0
  8 10  1  0
  8 11  1  0
  8 12  1  0
  9 13  1  0
 14 15  1  0
 15 16  1  0
 17 18  1  0
M  END
>  <PUBCHEM_COMPOUND_CID>  (1) 
479

>  <PUBCHEM_COMPOUND_CANONICALIZED>  (1) 
1

>  <PUBCHEM_CACTVS_COMPLEXITY>  (1) 
284

>  <PUBCHEM_CACTVS_HBOND_ACCEPTOR>  (1) 
5

>  <PUBCHEM_CACTVS_HBOND_DONOR>  (1) 
5

>  <PUBCHEM_CACTVS_ROTATABLE_BOND>  (1) 
8

>  <PUBCHEM_CACTVS_SUBSKEYS>  (1) 
AAADceBzOABAAAAAAAAAAAAAAAAAAAAAAAAAAAAAAAAAAAAAAAAAHgQQCAAADhTlwAaCAALAAgQIAAEQEAIAAAAAAAAAAIFIAAACEBgAwAAEQAAFFgCQAAAiAAAJAAAAAAAAAAAAAAAAAAAAAAAAAAAAAA==

>  <PUBCHEM_IUPAC_OPENEYE_NAME>  (1) 
2,4-dihydroxy-3,3-dimethyl-N-[3-oxo-3-(2-sulfanylethylamino)propyl]butanamide

>  <PUBCHEM_IUPAC_CAS_NAME>  (1) 
2,4-dihydroxy-N-[3-(2-mercaptoethylamino)-3-oxopropyl]-3,3-dimethylbutanamide

>  <PUBCHEM_IUPAC_NAME_MARKUP>  (1) 
2,4-dihydroxy-3,3-dimethyl-<I>N</I>-[3-oxo-3-(2-sulfanylethylamino)propyl]butanamide

>  <PUBCHEM_IUPAC_NAME>  (1) 
2,4-dihydroxy-3,3-dimethyl-N-[3-oxo-3-(2-sulfanylethylamino)propyl]butanamide

>  <PUBCHEM_IUPAC_SYSTEMATIC_NAME>  (1) 
3,3-dimethyl-2,4-bis(oxidanyl)-N-[3-oxidanylidene-3-(2-sulfanylethylamino)propyl]butanamide

>  <PUBCHEM_IUPAC_TRADITIONAL_NAME>  (1) 
2,4-dihydroxy-N-[3-keto-3-(2-mercaptoethylamino)propyl]-3,3-dimethyl-butyramide

>  <PUBCHEM_IUPAC_INCHI>  (1) 
InChI=1S/C11H22N2O4S/c1-11(2,7-14)9(16)10(17)13-4-3-8(15)12-5-6-18/h9,14,16,18H,3-7H2,1-2H3,(H,12,15)(H,13,17)

>  <PUBCHEM_IUPAC_INCHIKEY>  (1) 
ZNXZGRMVNNHPCA-UHFFFAOYSA-N

>  <PUBCHEM_XLOGP3_AA>  (1) 
-1

>  <PUBCHEM_EXACT_MASS>  (1) 
278.130028

>  <PUBCHEM_MOLECULAR_FORMULA>  (1) 
C11H22N2O4S

>  <PUBCHEM_MOLECULAR_WEIGHT>  (1) 
278.37

>  <PUBCHEM_OPENEYE_CAN_SMILES>  (1) 
CC(C)(CO)C(C(=O)NCCC(=O)NCCS)O

>  <PUBCHEM_OPENEYE_ISO_SMILES>  (1) 
CC(C)(CO)C(C(=O)NCCC(=O)NCCS)O

>  <PUBCHEM_CACTVS_TPSA>  (1) 
99.7

>  <PUBCHEM_MONOISOTOPIC_WEIGHT>  (1) 
278.130028

>  <PUBCHEM_TOTAL_CHARGE>  (1) 
0

>  <PUBCHEM_HEAVY_ATOM_COUNT>  (1) 
18

>  <PUBCHEM_ATOM_DEF_STEREO_COUNT>  (1) 
0

>  <PUBCHEM_ATOM_UDEF_STEREO_COUNT>  (1) 
1

>  <PUBCHEM_BOND_DEF_STEREO_COUNT>  (1) 
0

>  <PUBCHEM_BOND_UDEF_STEREO_COUNT>  (1) 
0

>  <PUBCHEM_ISOTOPIC_ATOM_COUNT>  (1) 
0

>  <PUBCHEM_COMPONENT_COUNT>  (1) 
1

>  <PUBCHEM_CACTVS_TAUTO_COUNT>  (1) 
-1

>  <PUBCHEM_COORDINATE_TYPE>  (1) 
1
5
255

>  <PUBCHEM_BONDANNOTATIONS>  (1) 
9  2  3

$$$$
