482
     RDKit          2D

 32 32  0  0  1  0  0  0  0  0999 V2000
    0.1711   -3.4330    0.0000 P   0  0  0  0  0  0  0  0  0  0  0  0
   -3.3440   -1.5908    0.0000 P   0  0  0  0  0  0  0  0  0  0  0  0
    3.5241   -1.3099    0.0000 P   0  0  0  0  0  0  0  0  0  0  0  0
   -3.5062    2.3745    0.0000 P   0  0  0  0  0  0  0  0  0  0  0  0
    3.3619    2.6554    0.0000 P   0  0  0  0  0  0  0  0  0  0  0  0
    1.1059   -2.2599    0.0000 O   0  0  0  0  0  0  0  0  0  0  0  0
   -1.8607   -1.8138    0.0000 O   0  0  0  0  0  0  0  0  0  0  0  0
    2.9756    0.0862    0.0000 O   0  0  0  0  0  0  0  0  0  0  0  0
   -2.9577    0.9784    0.0000 O   0  0  0  0  0  0  0  0  0  0  0  0
    1.8786    2.8785    0.0000 O   0  0  0  0  0  0  0  0  0  0  0  0
   -1.0881    3.3246    0.0000 O   0  0  0  0  0  0  0  0  0  0  0  0
    1.3442   -4.3678    0.0000 O   0  0  0  0  0  0  0  0  0  0  0  0
   -0.7637   -4.6061    0.0000 O   0  0  0  0  0  0  0  0  0  0  0  0
   -3.1210   -0.1075    0.0000 O   0  0  0  0  0  0  0  0  0  0  0  0
   -4.8274   -1.3677    0.0000 O   0  0  0  0  0  0  0  0  0  0  0  0
    2.1280   -1.8584    0.0000 O   0  0  0  0  0  0  0  0  0  0  0  0
    4.0726   -2.7060    0.0000 O   0  0  0  0  0  0  0  0  0  0  0  0
   -2.1101    2.9230    0.0000 O   0  0  0  0  0  0  0  0  0  0  0  0
   -4.0547    3.7706    0.0000 O   0  0  0  0  0  0  0  0  0  0  0  0
    3.1389    1.1721    0.0000 O   0  0  0  0  0  0  0  0  0  0  0  0
    4.8452    2.4324    0.0000 O   0  0  0  0  0  0  0  0  0  0  0  0
   -1.0020   -2.4982    0.0000 O   0  0  0  0  0  0  0  0  0  0  0  0
   -3.5671   -3.0741    0.0000 O   0  0  0  0  0  0  0  0  0  0  0  0
    4.9202   -0.7614    0.0000 O   0  0  0  0  0  0  0  0  0  0  0  0
   -4.9023    1.8260    0.0000 O   0  0  0  0  0  0  0  0  0  0  0  0
    3.5850    4.1388    0.0000 O   0  0  0  0  0  0  0  0  0  0  0  0
    0.5574   -0.8638    0.0000 C   0  0  0  0  0  0  0  0  0  0  0  0
   -0.9259   -0.6408    0.0000 C   0  0  0  0  0  0  0  0  0  0  0  0
    1.4923    0.3093    0.0000 C   0  0  0  0  0  0  0  0  0  0  0  0
   -1.4744    0.7554    0.0000 C   0  0  0  0  0  0  0  0  0  0  0  0
    0.9438    1.7054    0.0000 C   0  0  0  0  0  0  0  0  0  0  0  0
   -0.5396    1.9284    0.0000 C   0  0  0  0  0  0  0  0  0  0  0  0
  1  6  1  0
  1 12  1  0
  1 13  1  0
  1 22  2  0
  2  7  1  0
  2 14  1  0
  2 15  1  0
  2 23  2  0
  3  8  1  0
  3 16  1  0
  3 17  1  0
  3 24  2  0
  4  9  1  0
  4 18  1  0
  4 19  1  0
  4 25  2  0
  5 10  1  0
  5 20  1  0
  5 21  1  0
  5 26  2  0
  6 27  1  0
  7 28  1  0
  8 29  1  0
  9 30  1  0
 10 31  1  0
 11 32  1  0
 27 28  1  0
 27 29  1  0
 28 30  1  0
 29 31  1  0
 30 32  1  0
 31 32  1  0
M  END
>  <PUBCHEM_COMPOUND_CID>  (1) 
482

>  <PUBCHEM_COMPOUND_CANONICALIZED>  (1) 
1

>  <PUBCHEM_CACTVS_COMPLEXITY>  (1) 
824

>  <PUBCHEM_CACTVS_HBOND_ACCEPTOR>  (1) 
21

>  <PUBCHEM_CACTVS_HBOND_DONOR>  (1) 
11

>  <PUBCHEM_CACTVS_ROTATABLE_BOND>  (1) 
10

>  <PUBCHEM_CACTVS_SUBSKEYS>  (1) 
AAADceBgPgOAAAAAAAAAAAAAAAAAAAAAAAAwAAAAAAAAAAAAAAAAGgAACCAACBSggAIAAAAAAxAAQAAAAIAAAAAAAAAAAAAAAAABEAIAAAAAQAAFAAABAAHAYAQAAAAAAAAAAAACAAAQAACAAAAAAAAAAA==

>  <PUBCHEM_IUPAC_OPENEYE_NAME>  (1) 
(2-hydroxy-3,4,5,6-tetraphosphonooxy-cyclohexyl) dihydrogen phosphate

>  <PUBCHEM_IUPAC_CAS_NAME>  (1) 
(2-hydroxy-3,4,5,6-tetraphosphonooxycyclohexyl) dihydrogen phosphate

>  <PUBCHEM_IUPAC_NAME_MARKUP>  (1) 
(2-hydroxy-3,4,5,6-tetraphosphonooxycyclohexyl) dihydrogen phosphate

>  <PUBCHEM_IUPAC_NAME>  (1) 
(2-hydroxy-3,4,5,6-tetraphosphonooxycyclohexyl) dihydrogen phosphate

>  <PUBCHEM_IUPAC_SYSTEMATIC_NAME>  (1) 
(2-oxidanyl-3,4,5,6-tetraphosphonooxy-cyclohexyl) dihydrogen phosphate

>  <PUBCHEM_IUPAC_TRADITIONAL_NAME>  (1) 
(2-hydroxy-3,4,5,6-tetraphosphonooxy-cyclohexyl) dihydrogen phosphate

>  <PUBCHEM_IUPAC_INCHI>  (1) 
InChI=1S/C6H17O21P5/c7-1-2(23-28(8,9)10)4(25-30(14,15)16)6(27-32(20,21)22)5(26-31(17,18)19)3(1)24-29(11,12)13/h1-7H,(H2,8,9,10)(H2,11,12,13)(H2,14,15,16)(H2,17,18,19)(H2,20,21,22)

>  <PUBCHEM_IUPAC_INCHIKEY>  (1) 
CTPQAXVNYGZUAJ-UHFFFAOYSA-N

>  <PUBCHEM_XLOGP3_AA>  (1) 
-9.2

>  <PUBCHEM_EXACT_MASS>  (1) 
579.895043

>  <PUBCHEM_MOLECULAR_FORMULA>  (1) 
C6H17O21P5

>  <PUBCHEM_MOLECULAR_WEIGHT>  (1) 
580.06

>  <PUBCHEM_OPENEYE_CAN_SMILES>  (1) 
C1(C(C(C(C(C1OP(=O)(O)O)OP(=O)(O)O)OP(=O)(O)O)OP(=O)(O)O)OP(=O)(O)O)O

>  <PUBCHEM_OPENEYE_ISO_SMILES>  (1) 
C1(C(C(C(C(C1OP(=O)(O)O)OP(=O)(O)O)OP(=O)(O)O)OP(=O)(O)O)OP(=O)(O)O)O

>  <PUBCHEM_CACTVS_TPSA>  (1) 
354

>  <PUBCHEM_MONOISOTOPIC_WEIGHT>  (1) 
579.895043

>  <PUBCHEM_TOTAL_CHARGE>  (1) 
0

>  <PUBCHEM_HEAVY_ATOM_COUNT>  (1) 
32

>  <PUBCHEM_ATOM_DEF_STEREO_COUNT>  (1) 
0

>  <PUBCHEM_ATOM_UDEF_STEREO_COUNT>  (1) 
4

>  <PUBCHEM_BOND_DEF_STEREO_COUNT>  (1) 
0

>  <PUBCHEM_BOND_UDEF_STEREO_COUNT>  (1) 
0

>  <PUBCHEM_ISOTOPIC_ATOM_COUNT>  (1) 
0

>  <PUBCHEM_COMPONENT_COUNT>  (1) 
1

>  <PUBCHEM_CACTVS_TAUTO_COUNT>  (1) 
-1

>  <PUBCHEM_COORDINATE_TYPE>  (1) 
1
5
255

>  <PUBCHEM_BONDANNOTATIONS>  (1) 
31  10  3
28  7  3
29  8  3
30  9  3

$$$$
