483
     RDKit          2D

 20 20  0  0  1  0  0  0  0  0999 V2000
    1.1370   -2.2187    0.0000 P   0  0  0  0  0  0  0  0  0  0  0  0
   -4.0599   -0.1439    0.0000 P   0  0  0  0  0  0  0  0  0  0  0  0
    0.5723   -0.1940    0.0000 O   0  0  0  0  0  0  0  0  0  0  0  0
    2.2807   -1.2481    0.0000 O   0  0  0  0  0  0  0  0  0  0  0  0
    3.2945    2.5728    0.0000 O   0  0  0  0  0  0  0  0  0  0  0  0
    0.2217    3.6716    0.0000 O   0  0  0  0  0  0  0  0  0  0  0  0
   -2.5605   -0.1878    0.0000 O   0  0  0  0  0  0  0  0  0  0  0  0
    4.3534   -0.8981    0.0000 O   0  0  0  0  0  0  0  0  0  0  0  0
    0.1664   -1.0751    0.0000 O   0  0  0  0  0  0  0  0  0  0  0  0
   -0.0066   -3.1894    0.0000 O   0  0  0  0  0  0  0  0  0  0  0  0
    2.1077   -3.3624    0.0000 O   0  0  0  0  0  0  0  0  0  0  0  0
   -4.0160    1.3554    0.0000 O   0  0  0  0  0  0  0  0  0  0  0  0
   -5.5592   -0.1000    0.0000 O   0  0  0  0  0  0  0  0  0  0  0  0
   -4.1038   -1.6433    0.0000 O   0  0  0  0  0  0  0  0  0  0  0  0
    2.0119    0.2276    0.0000 C   0  0  0  0  0  0  0  0  0  0  0  0
    2.0557    1.7270    0.0000 C   0  0  0  0  0  0  0  0  0  0  0  0
    0.6433    2.2321    0.0000 C   0  0  0  0  0  0  0  0  0  0  0  0
   -0.2735    1.0448    0.0000 C   0  0  0  0  0  0  0  0  0  0  0  0
    3.5076    0.3407    0.0000 C   0  0  0  0  0  0  0  0  0  0  0  0
   -1.7728    1.0887    0.0000 C   0  0  0  0  0  0  0  0  0  0  0  0
  1  4  1  0
  1  9  1  0
  1 10  1  0
  1 11  2  0
  2  7  1  0
  2 12  1  0
  2 13  1  0
  2 14  2  0
  3 15  1  0
  3 18  1  0
  4 15  1  0
  5 16  1  0
  6 17  1  0
  7 20  1  0
  8 19  1  0
 15 16  1  0
 15 19  1  0
 16 17  1  0
 17 18  1  0
 18 20  1  0
M  END
>  <PUBCHEM_COMPOUND_CID>  (1) 
483

>  <PUBCHEM_COMPOUND_CANONICALIZED>  (1) 
1

>  <PUBCHEM_CACTVS_COMPLEXITY>  (1) 
428

>  <PUBCHEM_CACTVS_HBOND_ACCEPTOR>  (1) 
12

>  <PUBCHEM_CACTVS_HBOND_DONOR>  (1) 
7

>  <PUBCHEM_CACTVS_ROTATABLE_BOND>  (1) 
6

>  <PUBCHEM_CACTVS_SUBSKEYS>  (1) 
AAADccBgPAMAAAAAAAAAAAAAAAAAASAAAAAAAAAAAAAAAAAAAAAAGgAACCAACBSggAIACAAABxAAQAAAAIAAAAAAAAAAAAAAAAAREAIAAAACQAAFAAAHAAHAYAQAAAAAAAAAAAAAAAAAAAAAAAAAAAAAAA==

>  <PUBCHEM_IUPAC_OPENEYE_NAME>  (1) 
[3,4-dihydroxy-2-(hydroxymethyl)-5-(phosphonooxymethyl)tetrahydrofuran-2-yl] dihydrogen phosphate

>  <PUBCHEM_IUPAC_CAS_NAME>  (1) 
[3,4-dihydroxy-2-(hydroxymethyl)-5-(phosphonooxymethyl)-2-oxolanyl] dihydrogen phosphate

>  <PUBCHEM_IUPAC_NAME_MARKUP>  (1) 
[3,4-dihydroxy-2-(hydroxymethyl)-5-(phosphonooxymethyl)oxolan-2-yl] dihydrogen phosphate

>  <PUBCHEM_IUPAC_NAME>  (1) 
[3,4-dihydroxy-2-(hydroxymethyl)-5-(phosphonooxymethyl)oxolan-2-yl] dihydrogen phosphate

>  <PUBCHEM_IUPAC_SYSTEMATIC_NAME>  (1) 
[2-(hydroxymethyl)-3,4-bis(oxidanyl)-5-(phosphonooxymethyl)oxolan-2-yl] dihydrogen phosphate

>  <PUBCHEM_IUPAC_TRADITIONAL_NAME>  (1) 
[3,4-dihydroxy-2-methylol-5-(phosphonooxymethyl)tetrahydrofuran-2-yl] dihydrogen phosphate

>  <PUBCHEM_IUPAC_INCHI>  (1) 
InChI=1S/C6H14O12P2/c7-2-6(18-20(13,14)15)5(9)4(8)3(17-6)1-16-19(10,11)12/h3-5,7-9H,1-2H2,(H2,10,11,12)(H2,13,14,15)

>  <PUBCHEM_IUPAC_INCHIKEY>  (1) 
YXWOAJXNVLXPMU-UHFFFAOYSA-N

>  <PUBCHEM_XLOGP3_AA>  (1) 
-5

>  <PUBCHEM_EXACT_MASS>  (1) 
339.99605

>  <PUBCHEM_MOLECULAR_FORMULA>  (1) 
C6H14O12P2

>  <PUBCHEM_MOLECULAR_WEIGHT>  (1) 
340.12

>  <PUBCHEM_OPENEYE_CAN_SMILES>  (1) 
C(C1C(C(C(O1)(CO)OP(=O)(O)O)O)O)OP(=O)(O)O

>  <PUBCHEM_OPENEYE_ISO_SMILES>  (1) 
C(C1C(C(C(O1)(CO)OP(=O)(O)O)O)O)OP(=O)(O)O

>  <PUBCHEM_CACTVS_TPSA>  (1) 
203

>  <PUBCHEM_MONOISOTOPIC_WEIGHT>  (1) 
339.99605

>  <PUBCHEM_TOTAL_CHARGE>  (1) 
0

>  <PUBCHEM_HEAVY_ATOM_COUNT>  (1) 
20

>  <PUBCHEM_ATOM_DEF_STEREO_COUNT>  (1) 
0

>  <PUBCHEM_ATOM_UDEF_STEREO_COUNT>  (1) 
4

>  <PUBCHEM_BOND_DEF_STEREO_COUNT>  (1) 
0

>  <PUBCHEM_BOND_UDEF_STEREO_COUNT>  (1) 
0

>  <PUBCHEM_ISOTOPIC_ATOM_COUNT>  (1) 
0

>  <PUBCHEM_COMPONENT_COUNT>  (1) 
1

>  <PUBCHEM_CACTVS_TAUTO_COUNT>  (1) 
-1

>  <PUBCHEM_COORDINATE_TYPE>  (1) 
1
5
255

>  <PUBCHEM_BONDANNOTATIONS>  (1) 
15  19  3
18  20  3
16  5  3
17  6  3

$$$$
