484
     RDKit          2D

  6  6  0  0  0  0  0  0  0  0999 V2000
   -0.0684   -1.2135    0.0000 N   0  0  0  0  0  0  0  0  0  0  0  0
   -1.4949    0.7500    0.0000 N   0  0  0  0  0  0  0  0  0  0  0  0
    2.3133    0.0000    0.0000 N   0  0  0  0  0  0  0  0  0  0  0  0
    0.8133   -0.0000    0.0000 C   0  0  0  0  0  0  0  0  0  0  0  0
   -0.0684    1.2135    0.0000 C   0  0  0  0  0  0  0  0  0  0  0  0
   -1.4949   -0.7500    0.0000 C   0  0  0  0  0  0  0  0  0  0  0  0
  1  4  1  0
  1  6  1  0
  2  5  1  0
  2  6  2  0
  3  4  1  0
  4  5  2  0
M  END
>  <PUBCHEM_COMPOUND_CID>  (1) 
484

>  <PUBCHEM_COMPOUND_CANONICALIZED>  (1) 
1

>  <PUBCHEM_CACTVS_COMPLEXITY>  (1) 
45.3

>  <PUBCHEM_CACTVS_HBOND_ACCEPTOR>  (1) 
2

>  <PUBCHEM_CACTVS_HBOND_DONOR>  (1) 
2

>  <PUBCHEM_CACTVS_ROTATABLE_BOND>  (1) 
0

>  <PUBCHEM_CACTVS_SUBSKEYS>  (1) 
AAADcYBDAAAAAAAAAAAAAAAAAAAAAWAAAAAAAAAAAAAAAAABgAAAHAAQAAAAAADBAgQtsBbJkACgABInZAAAgC2REqABQYAYMACASAAACAAQAAAIEAIAACAAAAAAAAAAAAAAAAAAAAAAAAAAAAAAAAAAAA==

>  <PUBCHEM_IUPAC_OPENEYE_NAME>  (1) 
1H-imidazol-5-amine

>  <PUBCHEM_IUPAC_CAS_NAME>  (1) 
1H-imidazol-5-amine

>  <PUBCHEM_IUPAC_NAME_MARKUP>  (1) 
1<I>H</I>-imidazol-5-amine

>  <PUBCHEM_IUPAC_NAME>  (1) 
1H-imidazol-5-amine

>  <PUBCHEM_IUPAC_SYSTEMATIC_NAME>  (1) 
1H-imidazol-5-amine

>  <PUBCHEM_IUPAC_TRADITIONAL_NAME>  (1) 
1H-imidazol-5-ylamine

>  <PUBCHEM_IUPAC_INCHI>  (1) 
InChI=1S/C3H5N3/c4-3-1-5-2-6-3/h1-2H,4H2,(H,5,6)

>  <PUBCHEM_IUPAC_INCHIKEY>  (1) 
QRZMXADUXZADTF-UHFFFAOYSA-N

>  <PUBCHEM_XLOGP3_AA>  (1) 
-0.3

>  <PUBCHEM_EXACT_MASS>  (1) 
83.048347

>  <PUBCHEM_MOLECULAR_FORMULA>  (1) 
C3H5N3

>  <PUBCHEM_MOLECULAR_WEIGHT>  (1) 
83.09

>  <PUBCHEM_OPENEYE_CAN_SMILES>  (1) 
C1=C(NC=N1)N

>  <PUBCHEM_OPENEYE_ISO_SMILES>  (1) 
C1=C(NC=N1)N

>  <PUBCHEM_CACTVS_TPSA>  (1) 
54.7

>  <PUBCHEM_MONOISOTOPIC_WEIGHT>  (1) 
83.048347

>  <PUBCHEM_TOTAL_CHARGE>  (1) 
0

>  <PUBCHEM_HEAVY_ATOM_COUNT>  (1) 
6

>  <PUBCHEM_ATOM_DEF_STEREO_COUNT>  (1) 
0

>  <PUBCHEM_ATOM_UDEF_STEREO_COUNT>  (1) 
0

>  <PUBCHEM_BOND_DEF_STEREO_COUNT>  (1) 
0

>  <PUBCHEM_BOND_UDEF_STEREO_COUNT>  (1) 
0

>  <PUBCHEM_ISOTOPIC_ATOM_COUNT>  (1) 
0

>  <PUBCHEM_COMPONENT_COUNT>  (1) 
1

>  <PUBCHEM_CACTVS_TAUTO_COUNT>  (1) 
-1

>  <PUBCHEM_COORDINATE_TYPE>  (1) 
1
5
255

>  <PUBCHEM_BONDANNOTATIONS>  (1) 
1  4  8
1  6  8
2  5  8
2  6  8
4  5  8

$$$$
