485
     RDKit          2D

 11 10  0  0  0  0  0  0  0  0999 V2000
    2.5981   -0.0000    0.0000 S   0  0  0  0  0  0  0  0  0  0  0  0
    1.2990    0.7500    0.0000 O   0  0  0  0  0  0  0  0  0  0  0  0
    3.8971   -0.7500    0.0000 O   0  0  0  0  0  0  0  0  0  0  0  0
    1.8481   -1.2990    0.0000 O   0  0  0  0  0  0  0  0  0  0  0  0
    3.3481    1.2990    0.0000 O   0  0  0  0  0  0  0  0  0  0  0  0
   -2.5981    0.0000    0.0000 N   0  0  0  0  0  0  0  0  0  0  0  0
   -1.2990    0.7500    0.0000 C   0  0  0  0  0  0  0  0  0  0  0  0
   -3.3481    1.2990    0.0000 C   0  0  0  0  0  0  0  0  0  0  0  0
   -1.8481   -1.2990    0.0000 C   0  0  0  0  0  0  0  0  0  0  0  0
   -3.8971   -0.7500    0.0000 C   0  0  0  0  0  0  0  0  0  0  0  0
    0.0000    0.0000    0.0000 C   0  0  0  0  0  0  0  0  0  0  0  0
  1  2  1  0
  1  3  1  0
  1  4  2  0
  1  5  2  0
  2 11  1  0
  6  7  1  0
  6  8  1  0
  6  9  1  0
  6 10  1  0
  7 11  1  0
M  CHG  2   3  -1   6   1
M  END
>  <PUBCHEM_COMPOUND_CID>  (1) 
485

>  <PUBCHEM_COMPOUND_CANONICALIZED>  (1) 
1

>  <PUBCHEM_CACTVS_COMPLEXITY>  (1) 
184

>  <PUBCHEM_CACTVS_HBOND_ACCEPTOR>  (1) 
4

>  <PUBCHEM_CACTVS_HBOND_DONOR>  (1) 
0

>  <PUBCHEM_CACTVS_ROTATABLE_BOND>  (1) 
3

>  <PUBCHEM_CACTVS_SUBSKEYS>  (1) 
AAADccBiOABAAAAAAAAAAAAAAAAAAAAAAAAAAAAAAAAAAAAAAAAAHgAAAAAAAADhgAYCAAMAAAAAAAAAADAAAAAAAAAAAAAIAAACAAAAAAAAAAAAAAAQAAAAAAAAAAAAAAAAAAAAAAAAAAAAAAAAAAAAAA==

>  <PUBCHEM_IUPAC_OPENEYE_NAME>  (1) 
2-(trimethylammonio)ethyl sulfate

>  <PUBCHEM_IUPAC_CAS_NAME>  (1) 
2-(trimethylammonio)ethyl sulfate

>  <PUBCHEM_IUPAC_NAME_MARKUP>  (1) 
2-(trimethylazaniumyl)ethyl sulfate

>  <PUBCHEM_IUPAC_NAME>  (1) 
2-(trimethylazaniumyl)ethyl sulfate

>  <PUBCHEM_IUPAC_SYSTEMATIC_NAME>  (1) 
2-(trimethylazaniumyl)ethyl sulfate

>  <PUBCHEM_IUPAC_TRADITIONAL_NAME>  (1) 
2-(trimethylammonio)ethyl sulfate

>  <PUBCHEM_IUPAC_INCHI>  (1) 
InChI=1S/C5H13NO4S/c1-6(2,3)4-5-10-11(7,8)9/h4-5H2,1-3H3

>  <PUBCHEM_IUPAC_INCHIKEY>  (1) 
WXCQAWGXWVRCGP-UHFFFAOYSA-N

>  <PUBCHEM_XLOGP3_AA>  (1) 
-0.9

>  <PUBCHEM_EXACT_MASS>  (1) 
183.056529

>  <PUBCHEM_MOLECULAR_FORMULA>  (1) 
C5H13NO4S

>  <PUBCHEM_MOLECULAR_WEIGHT>  (1) 
183.23

>  <PUBCHEM_OPENEYE_CAN_SMILES>  (1) 
C[N+](C)(C)CCOS(=O)(=O)[O-]

>  <PUBCHEM_OPENEYE_ISO_SMILES>  (1) 
C[N+](C)(C)CCOS(=O)(=O)[O-]

>  <PUBCHEM_CACTVS_TPSA>  (1) 
74.8

>  <PUBCHEM_MONOISOTOPIC_WEIGHT>  (1) 
183.056529

>  <PUBCHEM_TOTAL_CHARGE>  (1) 
0

>  <PUBCHEM_HEAVY_ATOM_COUNT>  (1) 
11

>  <PUBCHEM_ATOM_DEF_STEREO_COUNT>  (1) 
0

>  <PUBCHEM_ATOM_UDEF_STEREO_COUNT>  (1) 
0

>  <PUBCHEM_BOND_DEF_STEREO_COUNT>  (1) 
0

>  <PUBCHEM_BOND_UDEF_STEREO_COUNT>  (1) 
0

>  <PUBCHEM_ISOTOPIC_ATOM_COUNT>  (1) 
0

>  <PUBCHEM_COMPONENT_COUNT>  (1) 
1

>  <PUBCHEM_CACTVS_TAUTO_COUNT>  (1) 
-1

>  <PUBCHEM_COORDINATE_TYPE>  (1) 
1
5
255

$$$$
