489
     RDKit          2D

 16 16  0  0  1  0  0  0  0  0999 V2000
    3.0626   -0.1268    0.0000 S   0  0  0  0  0  0  0  0  0  0  0  0
   -1.2596   -1.3794    0.0000 O   0  0  0  0  0  0  0  0  0  0  0  0
   -0.1833    2.9900    0.0000 O   0  0  0  0  0  0  0  0  0  0  0  0
   -3.0647    2.1549    0.0000 O   0  0  0  0  0  0  0  0  0  0  0  0
    1.2631   -2.0008    0.0000 O   0  0  0  0  0  0  0  0  0  0  0  0
   -4.1410   -2.2145    0.0000 O   0  0  0  0  0  0  0  0  0  0  0  0
    4.1445   -1.1657    0.0000 O   0  0  0  0  0  0  0  0  0  0  0  0
    4.1015    0.9552    0.0000 O   0  0  0  0  0  0  0  0  0  0  0  0
    2.0237   -1.2087    0.0000 O   0  0  0  0  0  0  0  0  0  0  0  0
    1.9806    0.9121    0.0000 N   0  0  0  0  0  0  0  0  0  0  0  0
    0.5399    0.4946    0.0000 C   0  0  0  0  0  0  0  0  0  0  0  0
   -0.5421    1.5335    0.0000 C   0  0  0  0  0  0  0  0  0  0  0  0
   -1.9828    1.1160    0.0000 C   0  0  0  0  0  0  0  0  0  0  0  0
   -2.3415   -0.3405    0.0000 C   0  0  0  0  0  0  0  0  0  0  0  0
    0.1812   -0.9619    0.0000 C   0  0  0  0  0  0  0  0  0  0  0  0
   -3.7822   -0.7580    0.0000 C   0  0  0  0  0  0  0  0  0  0  0  0
  1  7  1  0
  1  8  2  0
  1  9  2  0
  1 10  1  0
  2 14  1  0
  2 15  1  0
  3 12  1  0
  4 13  1  0
  5 15  1  0
  6 16  1  0
 10 11  1  0
 11 12  1  0
 11 15  1  0
 12 13  1  0
 13 14  1  0
 14 16  1  0
M  END
>  <PUBCHEM_COMPOUND_CID>  (1) 
489

>  <PUBCHEM_COMPOUND_CANONICALIZED>  (1) 
1

>  <PUBCHEM_CACTVS_COMPLEXITY>  (1) 
326

>  <PUBCHEM_CACTVS_HBOND_ACCEPTOR>  (1) 
9

>  <PUBCHEM_CACTVS_HBOND_DONOR>  (1) 
6

>  <PUBCHEM_CACTVS_ROTATABLE_BOND>  (1) 
3

>  <PUBCHEM_CACTVS_SUBSKEYS>  (1) 
AAADccBiPABAAAAAAAAAAAAAAAAAAAAAAAAkAAAAAAAAAAAAAAAAHgAQSAAACDzxgAcACABABoAAAAAAADAAAAAAAAAAAIAAAAATEAIAgAADQAAHEAAHAAHwcAUAAAAAAAAAAAAAAAAAAAAAAAAAAAAAAA==

>  <PUBCHEM_IUPAC_OPENEYE_NAME>  (1) 
[2,4,5-trihydroxy-6-(hydroxymethyl)tetrahydropyran-3-yl]sulfamic acid

>  <PUBCHEM_IUPAC_CAS_NAME>  (1) 
[2,4,5-trihydroxy-6-(hydroxymethyl)-3-oxanyl]sulfamic acid

>  <PUBCHEM_IUPAC_NAME_MARKUP>  (1) 
[2,4,5-trihydroxy-6-(hydroxymethyl)oxan-3-yl]sulfamic acid

>  <PUBCHEM_IUPAC_NAME>  (1) 
[2,4,5-trihydroxy-6-(hydroxymethyl)oxan-3-yl]sulfamic acid

>  <PUBCHEM_IUPAC_SYSTEMATIC_NAME>  (1) 
[6-(hydroxymethyl)-2,4,5-tris(oxidanyl)oxan-3-yl]sulfamic acid

>  <PUBCHEM_IUPAC_TRADITIONAL_NAME>  (1) 
(2,4,5-trihydroxy-6-methylol-tetrahydropyran-3-yl)sulfamic acid

>  <PUBCHEM_IUPAC_INCHI>  (1) 
InChI=1S/C6H13NO8S/c8-1-2-4(9)5(10)3(6(11)15-2)7-16(12,13)14/h2-11H,1H2,(H,12,13,14)

>  <PUBCHEM_IUPAC_INCHIKEY>  (1) 
PRDZVHCOEWJPOB-UHFFFAOYSA-N

>  <PUBCHEM_XLOGP3>  (1) 
-2.4

>  <PUBCHEM_EXACT_MASS>  (1) 
259.036188

>  <PUBCHEM_MOLECULAR_FORMULA>  (1) 
C6H13NO8S

>  <PUBCHEM_MOLECULAR_WEIGHT>  (1) 
259.24

>  <PUBCHEM_OPENEYE_CAN_SMILES>  (1) 
C(C1C(C(C(C(O1)O)NS(=O)(=O)O)O)O)O

>  <PUBCHEM_OPENEYE_ISO_SMILES>  (1) 
C(C1C(C(C(C(O1)O)NS(=O)(=O)O)O)O)O

>  <PUBCHEM_CACTVS_TPSA>  (1) 
165

>  <PUBCHEM_MONOISOTOPIC_WEIGHT>  (1) 
259.036188

>  <PUBCHEM_TOTAL_CHARGE>  (1) 
0

>  <PUBCHEM_HEAVY_ATOM_COUNT>  (1) 
16

>  <PUBCHEM_ATOM_DEF_STEREO_COUNT>  (1) 
0

>  <PUBCHEM_ATOM_UDEF_STEREO_COUNT>  (1) 
5

>  <PUBCHEM_BOND_DEF_STEREO_COUNT>  (1) 
0

>  <PUBCHEM_BOND_UDEF_STEREO_COUNT>  (1) 
0

>  <PUBCHEM_ISOTOPIC_ATOM_COUNT>  (1) 
0

>  <PUBCHEM_COMPONENT_COUNT>  (1) 
1

>  <PUBCHEM_CACTVS_TAUTO_COUNT>  (1) 
-1

>  <PUBCHEM_COORDINATE_TYPE>  (1) 
1
5
255

>  <PUBCHEM_BONDANNOTATIONS>  (1) 
11  10  3
14  16  3
12  3  3
13  4  3
15  5  3

$$$$
