490
     RDKit          2D

  7  6  0  0  0  0  0  0  0  0999 V2000
    0.9337    0.0239    0.0000 P   0  0  0  0  0  0  0  0  0  0  0  0
    1.4944    1.4151    0.0000 O   0  0  0  0  0  0  0  0  0  0  0  0
    0.3731   -1.3674    0.0000 O   0  0  0  0  0  0  0  0  0  0  0  0
    2.3250   -0.5368    0.0000 O   0  0  0  0  0  0  0  0  0  0  0  0
   -3.0300    0.2207    0.0000 O   0  0  0  0  0  0  0  0  0  0  0  0
   -0.4575    0.5845    0.0000 C   0  0  0  0  0  0  0  0  0  0  0  0
   -1.6387   -0.3400    0.0000 C   0  0  0  0  0  0  0  0  0  0  0  0
  1  2  1  0
  1  3  1  0
  1  4  2  0
  1  6  1  0
  5  7  2  0
  6  7  1  0
M  END
>  <PUBCHEM_COMPOUND_CID>  (1) 
490

>  <PUBCHEM_COMPOUND_CANONICALIZED>  (1) 
1

>  <PUBCHEM_CACTVS_COMPLEXITY>  (1) 
102

>  <PUBCHEM_CACTVS_HBOND_ACCEPTOR>  (1) 
4

>  <PUBCHEM_CACTVS_HBOND_DONOR>  (1) 
2

>  <PUBCHEM_CACTVS_ROTATABLE_BOND>  (1) 
2

>  <PUBCHEM_CACTVS_SUBSKEYS>  (1) 
AAADcYBAOAIAAAAAAAAAAAAAAAAAAAAAAAAAAAAAAAAAAAAAAAAAGggACCAAAACogAIAAAAAABAIQAgQgIAAAAAAAAAAAAAAAAAAAAAAAAAAAAAAAAAAAAAAAAAAAAAAAAAAAAAAAAAAAAAAAAAAAAAAAA==

>  <PUBCHEM_IUPAC_OPENEYE_NAME>  (1) 
2-oxoethylphosphonic acid

>  <PUBCHEM_IUPAC_CAS_NAME>  (1) 
2-oxoethylphosphonic acid

>  <PUBCHEM_IUPAC_NAME_MARKUP>  (1) 
2-oxoethylphosphonic acid

>  <PUBCHEM_IUPAC_NAME>  (1) 
2-oxoethylphosphonic acid

>  <PUBCHEM_IUPAC_SYSTEMATIC_NAME>  (1) 
2-oxidanylideneethylphosphonic acid

>  <PUBCHEM_IUPAC_TRADITIONAL_NAME>  (1) 
2-ketoethylphosphonic acid

>  <PUBCHEM_IUPAC_INCHI>  (1) 
InChI=1S/C2H5O4P/c3-1-2-7(4,5)6/h1H,2H2,(H2,4,5,6)

>  <PUBCHEM_IUPAC_INCHIKEY>  (1) 
YEMKIGUKNDOZEG-UHFFFAOYSA-N

>  <PUBCHEM_XLOGP3_AA>  (1) 
-2.1

>  <PUBCHEM_EXACT_MASS>  (1) 
123.992546

>  <PUBCHEM_MOLECULAR_FORMULA>  (1) 
C2H5O4P

>  <PUBCHEM_MOLECULAR_WEIGHT>  (1) 
124.03

>  <PUBCHEM_OPENEYE_CAN_SMILES>  (1) 
C(C=O)P(=O)(O)O

>  <PUBCHEM_OPENEYE_ISO_SMILES>  (1) 
C(C=O)P(=O)(O)O

>  <PUBCHEM_CACTVS_TPSA>  (1) 
74.6

>  <PUBCHEM_MONOISOTOPIC_WEIGHT>  (1) 
123.992546

>  <PUBCHEM_TOTAL_CHARGE>  (1) 
0

>  <PUBCHEM_HEAVY_ATOM_COUNT>  (1) 
7

>  <PUBCHEM_ATOM_DEF_STEREO_COUNT>  (1) 
0

>  <PUBCHEM_ATOM_UDEF_STEREO_COUNT>  (1) 
0

>  <PUBCHEM_BOND_DEF_STEREO_COUNT>  (1) 
0

>  <PUBCHEM_BOND_UDEF_STEREO_COUNT>  (1) 
0

>  <PUBCHEM_ISOTOPIC_ATOM_COUNT>  (1) 
0

>  <PUBCHEM_COMPONENT_COUNT>  (1) 
1

>  <PUBCHEM_CACTVS_TAUTO_COUNT>  (1) 
-1

>  <PUBCHEM_COORDINATE_TYPE>  (1) 
1
5
255

$$$$
