495
     RDKit          2D

 17 17  0  0  1  0  0  0  0  0999 V2000
    0.4040    0.0079    0.0000 S   0  0  0  0  0  0  0  0  0  0  0  0
   -2.4974   -1.1739    0.0000 O   0  0  0  0  0  0  0  0  0  0  0  0
   -3.6237    2.5405    0.0000 O   0  0  0  0  0  0  0  0  0  0  0  0
   -6.0592    0.3685    0.0000 O   0  0  0  0  0  0  0  0  0  0  0  0
   -4.7461   -2.6190    0.0000 O   0  0  0  0  0  0  0  0  0  0  0  0
    6.9422    0.0437    0.0000 O   0  0  0  0  0  0  0  0  0  0  0  0
    5.4051   -2.0509    0.0000 O   0  0  0  0  0  0  0  0  0  0  0  0
    4.5236    1.8186    0.0000 N   0  0  0  0  0  0  0  0  0  0  0  0
   -2.1785    0.2918    0.0000 C   0  0  0  0  0  0  0  0  0  0  0  0
   -3.4740    1.0480    0.0000 C   0  0  0  0  0  0  0  0  0  0  0  0
   -4.5935    0.0496    0.0000 C   0  0  0  0  0  0  0  0  0  0  0  0
   -3.9899   -1.3236    0.0000 C   0  0  0  0  0  0  0  0  0  0  0  0
   -0.8053    0.8954    0.0000 C   0  0  0  0  0  0  0  0  0  0  0  0
    1.7772    0.6115    0.0000 C   0  0  0  0  0  0  0  0  0  0  0  0
    2.9865   -0.2760    0.0000 C   0  0  0  0  0  0  0  0  0  0  0  0
    4.3597    0.3276    0.0000 C   0  0  0  0  0  0  0  0  0  0  0  0
    5.5690   -0.5598    0.0000 C   0  0  0  0  0  0  0  0  0  0  0  0
  1 13  1  0
  1 14  1  0
  2  9  1  0
  2 12  1  0
  3 10  1  0
  4 11  1  0
  5 12  1  0
  6 17  1  0
  7 17  2  0
  8 16  1  0
  9 10  1  0
  9 13  1  0
 10 11  1  0
 11 12  1  0
 14 15  1  0
 15 16  1  0
 16 17  1  0
M  END
>  <PUBCHEM_COMPOUND_CID>  (1) 
495

>  <PUBCHEM_COMPOUND_CANONICALIZED>  (1) 
1

>  <PUBCHEM_CACTVS_COMPLEXITY>  (1) 
266

>  <PUBCHEM_CACTVS_HBOND_ACCEPTOR>  (1) 
8

>  <PUBCHEM_CACTVS_HBOND_DONOR>  (1) 
5

>  <PUBCHEM_CACTVS_ROTATABLE_BOND>  (1) 
6

>  <PUBCHEM_CACTVS_SUBSKEYS>  (1) 
AAADceByOABAAAAAAAAAAAAAAAAAASAAAAAAAAAAAAAAAAAAAAAAHgQQCAAACDz1wAeACABABggIAACQCAAAAAAAABAAAIGAAAATEBIgAAACQAAFEAAnAADAAAAAAAAAAAAAAAAAAAAAAAAAAAAAAAAAAA==

>  <PUBCHEM_IUPAC_OPENEYE_NAME>  (1) 
2-amino-4-[(3,4,5-trihydroxytetrahydrofuran-2-yl)methylsulfanyl]butanoic acid

>  <PUBCHEM_IUPAC_CAS_NAME>  (1) 
2-amino-4-[(3,4,5-trihydroxy-2-oxolanyl)methylthio]butanoic acid

>  <PUBCHEM_IUPAC_NAME_MARKUP>  (1) 
2-amino-4-[(3,4,5-trihydroxyoxolan-2-yl)methylsulfanyl]butanoic acid

>  <PUBCHEM_IUPAC_NAME>  (1) 
2-amino-4-[(3,4,5-trihydroxyoxolan-2-yl)methylsulfanyl]butanoic acid

>  <PUBCHEM_IUPAC_SYSTEMATIC_NAME>  (1) 
2-azanyl-4-[[3,4,5-tris(oxidanyl)oxolan-2-yl]methylsulfanyl]butanoic acid

>  <PUBCHEM_IUPAC_TRADITIONAL_NAME>  (1) 
2-amino-4-[(3,4,5-trihydroxytetrahydrofuran-2-yl)methylthio]butyric acid

>  <PUBCHEM_IUPAC_INCHI>  (1) 
InChI=1S/C9H17NO6S/c10-4(8(13)14)1-2-17-3-5-6(11)7(12)9(15)16-5/h4-7,9,11-12,15H,1-3,10H2,(H,13,14)

>  <PUBCHEM_IUPAC_INCHIKEY>  (1) 
IQFWYNFDWRYSRA-UHFFFAOYSA-N

>  <PUBCHEM_XLOGP3_AA>  (1) 
-4.4

>  <PUBCHEM_EXACT_MASS>  (1) 
267.077658

>  <PUBCHEM_MOLECULAR_FORMULA>  (1) 
C9H17NO6S

>  <PUBCHEM_MOLECULAR_WEIGHT>  (1) 
267.3

>  <PUBCHEM_OPENEYE_CAN_SMILES>  (1) 
C(CSCC1C(C(C(O1)O)O)O)C(C(=O)O)N

>  <PUBCHEM_OPENEYE_ISO_SMILES>  (1) 
C(CSCC1C(C(C(O1)O)O)O)C(C(=O)O)N

>  <PUBCHEM_CACTVS_TPSA>  (1) 
159

>  <PUBCHEM_MONOISOTOPIC_WEIGHT>  (1) 
267.077658

>  <PUBCHEM_TOTAL_CHARGE>  (1) 
0

>  <PUBCHEM_HEAVY_ATOM_COUNT>  (1) 
17

>  <PUBCHEM_ATOM_DEF_STEREO_COUNT>  (1) 
0

>  <PUBCHEM_ATOM_UDEF_STEREO_COUNT>  (1) 
5

>  <PUBCHEM_BOND_DEF_STEREO_COUNT>  (1) 
0

>  <PUBCHEM_BOND_UDEF_STEREO_COUNT>  (1) 
0

>  <PUBCHEM_ISOTOPIC_ATOM_COUNT>  (1) 
0

>  <PUBCHEM_COMPONENT_COUNT>  (1) 
1

>  <PUBCHEM_CACTVS_TAUTO_COUNT>  (1) 
-1

>  <PUBCHEM_COORDINATE_TYPE>  (1) 
1
5
255

>  <PUBCHEM_BONDANNOTATIONS>  (1) 
10  3  3
11  4  3
12  5  3
16  8  3
9  13  3

$$$$
