496
     RDKit          2D

 13 12  0  0  0  0  0  0  0  0999 V2000
    5.4405   -1.5854    0.0000 O   0  0  0  0  0  0  0  0  0  0  0  0
   -1.1127    0.4896    0.0000 N   0  0  0  0  0  0  0  0  0  0  0  0
    4.0816    0.6289    0.0000 N   0  0  0  0  0  0  0  0  0  0  0  0
   -7.5855   -0.4344    0.0000 N   0  0  0  0  0  0  0  0  0  0  0  0
   -3.7099    0.4199    0.0000 C   0  0  0  0  0  0  0  0  0  0  0  0
   -2.3912   -0.2950    0.0000 C   0  0  0  0  0  0  0  0  0  0  0  0
    0.2060   -0.2253    0.0000 C   0  0  0  0  0  0  0  0  0  0  0  0
    1.4844    0.5593    0.0000 C   0  0  0  0  0  0  0  0  0  0  0  0
   -4.9883   -0.3647    0.0000 C   0  0  0  0  0  0  0  0  0  0  0  0
    2.8031   -0.1556    0.0000 C   0  0  0  0  0  0  0  0  0  0  0  0
   -6.3070    0.3502    0.0000 C   0  0  0  0  0  0  0  0  0  0  0  0
    5.4003   -0.0859    0.0000 C   0  0  0  0  0  0  0  0  0  0  0  0
    6.6787    0.6986    0.0000 C   0  0  0  0  0  0  0  0  0  0  0  0
  1 12  2  0
  2  6  1  0
  2  7  1  0
  3 10  1  0
  3 12  1  0
  4 11  1  0
  5  6  1  0
  5  9  1  0
  7  8  1  0
  8 10  1  0
  9 11  1  0
 12 13  1  0
M  END
>  <PUBCHEM_COMPOUND_CID>  (1) 
496

>  <PUBCHEM_COMPOUND_CANONICALIZED>  (1) 
1

>  <PUBCHEM_CACTVS_COMPLEXITY>  (1) 
128

>  <PUBCHEM_CACTVS_HBOND_ACCEPTOR>  (1) 
3

>  <PUBCHEM_CACTVS_HBOND_DONOR>  (1) 
3

>  <PUBCHEM_CACTVS_ROTATABLE_BOND>  (1) 
8

>  <PUBCHEM_CACTVS_SUBSKEYS>  (1) 
AAADceBzIAAAAAAAAAAAAAAAAAAAAAAAAAAAAAAAAAAAAAAAAAAAHgAQAAAACADBgAQCAALAAAAIAAEQEAAAAAAAAAAAAIAIAAAAAAAAwAAEAAAAFgCAAAAAAAAAAAAAAAAAAAAAAAAAAAAAAAAAAAAAAA==

>  <PUBCHEM_IUPAC_OPENEYE_NAME>  (1) 
N-[3-(4-aminobutylamino)propyl]acetamide

>  <PUBCHEM_IUPAC_CAS_NAME>  (1) 
N-[3-(4-aminobutylamino)propyl]acetamide

>  <PUBCHEM_IUPAC_NAME_MARKUP>  (1) 
<I>N</I>-[3-(4-aminobutylamino)propyl]acetamide

>  <PUBCHEM_IUPAC_NAME>  (1) 
N-[3-(4-aminobutylamino)propyl]acetamide

>  <PUBCHEM_IUPAC_SYSTEMATIC_NAME>  (1) 
N-[3-(4-azanylbutylamino)propyl]ethanamide

>  <PUBCHEM_IUPAC_TRADITIONAL_NAME>  (1) 
N-[3-(4-aminobutylamino)propyl]acetamide

>  <PUBCHEM_IUPAC_INCHI>  (1) 
InChI=1S/C9H21N3O/c1-9(13)12-8-4-7-11-6-3-2-5-10/h11H,2-8,10H2,1H3,(H,12,13)

>  <PUBCHEM_IUPAC_INCHIKEY>  (1) 
MQTAVJHICJWXBR-UHFFFAOYSA-N

>  <PUBCHEM_XLOGP3_AA>  (1) 
-0.8

>  <PUBCHEM_EXACT_MASS>  (1) 
187.168462

>  <PUBCHEM_MOLECULAR_FORMULA>  (1) 
C9H21N3O

>  <PUBCHEM_MOLECULAR_WEIGHT>  (1) 
187.28

>  <PUBCHEM_OPENEYE_CAN_SMILES>  (1) 
CC(=O)NCCCNCCCCN

>  <PUBCHEM_OPENEYE_ISO_SMILES>  (1) 
CC(=O)NCCCNCCCCN

>  <PUBCHEM_CACTVS_TPSA>  (1) 
67.2

>  <PUBCHEM_MONOISOTOPIC_WEIGHT>  (1) 
187.168462

>  <PUBCHEM_TOTAL_CHARGE>  (1) 
0

>  <PUBCHEM_HEAVY_ATOM_COUNT>  (1) 
13

>  <PUBCHEM_ATOM_DEF_STEREO_COUNT>  (1) 
0

>  <PUBCHEM_ATOM_UDEF_STEREO_COUNT>  (1) 
0

>  <PUBCHEM_BOND_DEF_STEREO_COUNT>  (1) 
0

>  <PUBCHEM_BOND_UDEF_STEREO_COUNT>  (1) 
0

>  <PUBCHEM_ISOTOPIC_ATOM_COUNT>  (1) 
0

>  <PUBCHEM_COMPONENT_COUNT>  (1) 
1

>  <PUBCHEM_CACTVS_TAUTO_COUNT>  (1) 
-1

>  <PUBCHEM_COORDINATE_TYPE>  (1) 
1
5
255

$$$$
