499
     RDKit          2D

  9  9  0  0  1  0  0  0  0  0999 V2000
   -3.3052   -0.8467    0.0000 O   0  0  0  0  0  0  0  0  0  0  0  0
    2.4269   -1.6003    0.0000 O   0  0  0  0  0  0  0  0  0  0  0  0
    2.9132    0.9519    0.0000 O   0  0  0  0  0  0  0  0  0  0  0  0
   -0.6334   -0.9301    0.0000 N   0  0  0  0  0  0  0  0  0  0  0  0
    0.4598    0.0969    0.0000 C   0  0  0  0  0  0  0  0  0  0  0  0
   -0.1792    1.4541    0.0000 C   0  0  0  0  0  0  0  0  0  0  0  0
   -1.6673    1.2657    0.0000 C   0  0  0  0  0  0  0  0  0  0  0  0
   -1.9481   -0.2077    0.0000 C   0  0  0  0  0  0  0  0  0  0  0  0
    1.9333   -0.1838    0.0000 C   0  0  0  0  0  0  0  0  0  0  0  0
  1  8  2  0
  2  9  1  0
  3  9  2  0
  4  5  1  0
  4  8  1  0
  5  6  1  0
  5  9  1  0
  6  7  1  0
  7  8  1  0
M  END
>  <PUBCHEM_COMPOUND_CID>  (1) 
499

>  <PUBCHEM_COMPOUND_CANONICALIZED>  (1) 
1

>  <PUBCHEM_CACTVS_COMPLEXITY>  (1) 
154

>  <PUBCHEM_CACTVS_HBOND_ACCEPTOR>  (1) 
3

>  <PUBCHEM_CACTVS_HBOND_DONOR>  (1) 
2

>  <PUBCHEM_CACTVS_ROTATABLE_BOND>  (1) 
1

>  <PUBCHEM_CACTVS_SUBSKEYS>  (1) 
AAADcYBiMAAAAAAAAAAAAAAAAAAAAWAAAAAAAAAAAAAAAAAAAAAAHgAQCAAACCjBgAQACALAAgAIAAGQGAAAAAAAAAAAAIGIAAACABIAgCAEQAAEFgCQAACcFwAAAAAAAAAAAAAAAAAAAAAAAAAAAAAAAA==

>  <PUBCHEM_IUPAC_OPENEYE_NAME>  (1) 
5-oxopyrrolidine-2-carboxylic acid

>  <PUBCHEM_IUPAC_CAS_NAME>  (1) 
5-oxo-2-pyrrolidinecarboxylic acid

>  <PUBCHEM_IUPAC_NAME_MARKUP>  (1) 
5-oxopyrrolidine-2-carboxylic acid

>  <PUBCHEM_IUPAC_NAME>  (1) 
5-oxopyrrolidine-2-carboxylic acid

>  <PUBCHEM_IUPAC_SYSTEMATIC_NAME>  (1) 
5-oxidanylidenepyrrolidine-2-carboxylic acid

>  <PUBCHEM_IUPAC_TRADITIONAL_NAME>  (1) 
pyroglutamic acid

>  <PUBCHEM_IUPAC_INCHI>  (1) 
InChI=1S/C5H7NO3/c7-4-2-1-3(6-4)5(8)9/h3H,1-2H2,(H,6,7)(H,8,9)

>  <PUBCHEM_IUPAC_INCHIKEY>  (1) 
ODHCTXKNWHHXJC-UHFFFAOYSA-N

>  <PUBCHEM_XLOGP3_AA>  (1) 
-0.8

>  <PUBCHEM_EXACT_MASS>  (1) 
129.042593

>  <PUBCHEM_MOLECULAR_FORMULA>  (1) 
C5H7NO3

>  <PUBCHEM_MOLECULAR_WEIGHT>  (1) 
129.11

>  <PUBCHEM_OPENEYE_CAN_SMILES>  (1) 
C1CC(=O)NC1C(=O)O

>  <PUBCHEM_OPENEYE_ISO_SMILES>  (1) 
C1CC(=O)NC1C(=O)O

>  <PUBCHEM_CACTVS_TPSA>  (1) 
66.4

>  <PUBCHEM_MONOISOTOPIC_WEIGHT>  (1) 
129.042593

>  <PUBCHEM_TOTAL_CHARGE>  (1) 
0

>  <PUBCHEM_HEAVY_ATOM_COUNT>  (1) 
9

>  <PUBCHEM_ATOM_DEF_STEREO_COUNT>  (1) 
0

>  <PUBCHEM_ATOM_UDEF_STEREO_COUNT>  (1) 
1

>  <PUBCHEM_BOND_DEF_STEREO_COUNT>  (1) 
0

>  <PUBCHEM_BOND_UDEF_STEREO_COUNT>  (1) 
0

>  <PUBCHEM_ISOTOPIC_ATOM_COUNT>  (1) 
0

>  <PUBCHEM_COMPONENT_COUNT>  (1) 
1

>  <PUBCHEM_CACTVS_TAUTO_COUNT>  (1) 
-1

>  <PUBCHEM_COORDINATE_TYPE>  (1) 
1
5
255

>  <PUBCHEM_BONDANNOTATIONS>  (1) 
5  9  3

$$$$
