5
     RDKit          2D

 10  9  0  0  0  0  0  0  0  0999 V2000
   -2.2397   -0.0361    0.0000 P   0  0  0  0  0  0  0  0  0  0  0  0
   -0.8420    0.5084    0.0000 O   0  0  0  0  0  0  0  0  0  0  0  0
   -1.6951   -1.4338    0.0000 O   0  0  0  0  0  0  0  0  0  0  0  0
   -3.6374   -0.5806    0.0000 O   0  0  0  0  0  0  0  0  0  0  0  0
    1.9533    1.5975    0.0000 O   0  0  0  0  0  0  0  0  0  0  0  0
   -2.7842    1.3616    0.0000 O   0  0  0  0  0  0  0  0  0  0  0  0
    4.2942   -0.2788    0.0000 N   0  0  0  0  0  0  0  0  0  0  0  0
    0.3284   -0.4297    0.0000 C   0  0  0  0  0  0  0  0  0  0  0  0
    1.7261    0.1148    0.0000 C   0  0  0  0  0  0  0  0  0  0  0  0
    2.8965   -0.8233    0.0000 C   0  0  0  0  0  0  0  0  0  0  0  0
  1  2  1  0
  1  3  1  0
  1  4  1  0
  1  6  2  0
  2  8  1  0
  5  9  2  0
  7 10  1  0
  8  9  1  0
  9 10  1  0
M  END
>  <PUBCHEM_COMPOUND_CID>  (1) 
5

>  <PUBCHEM_COMPOUND_CANONICALIZED>  (1) 
1

>  <PUBCHEM_CACTVS_COMPLEXITY>  (1) 
162

>  <PUBCHEM_CACTVS_HBOND_ACCEPTOR>  (1) 
6

>  <PUBCHEM_CACTVS_HBOND_DONOR>  (1) 
3

>  <PUBCHEM_CACTVS_ROTATABLE_BOND>  (1) 
4

>  <PUBCHEM_CACTVS_SUBSKEYS>  (1) 
AAADccBCOAIAAAAAAAAAAAAAAAAAAAAAAAAAAAAAAAAAAAAAAAAAHgAQCCAACAThgAYAAABAARAIQIAQAIIAAAAAAAAAAIDAAAAAAAAAAAAAAAACAAAAAAAAAAAAAAAAAAAAAAAAAAAAAAAAAAAAAAAAAA==

>  <PUBCHEM_IUPAC_OPENEYE_NAME>  (1) 
(3-amino-2-oxo-propyl) dihydrogen phosphate

>  <PUBCHEM_IUPAC_CAS_NAME>  (1) 
(3-amino-2-oxopropyl) dihydrogen phosphate

>  <PUBCHEM_IUPAC_NAME_MARKUP>  (1) 
(3-amino-2-oxopropyl) dihydrogen phosphate

>  <PUBCHEM_IUPAC_NAME>  (1) 
(3-amino-2-oxopropyl) dihydrogen phosphate

>  <PUBCHEM_IUPAC_SYSTEMATIC_NAME>  (1) 
(3-azanyl-2-oxidanylidene-propyl) dihydrogen phosphate

>  <PUBCHEM_IUPAC_TRADITIONAL_NAME>  (1) 
(3-amino-2-keto-propyl) dihydrogen phosphate

>  <PUBCHEM_IUPAC_INCHI>  (1) 
InChI=1S/C3H8NO5P/c4-1-3(5)2-9-10(6,7)8/h1-2,4H2,(H2,6,7,8)

>  <PUBCHEM_IUPAC_INCHIKEY>  (1) 
HIQNVODXENYOFK-UHFFFAOYSA-N

>  <PUBCHEM_XLOGP3_AA>  (1) 
-5

>  <PUBCHEM_EXACT_MASS>  (1) 
169.014009

>  <PUBCHEM_MOLECULAR_FORMULA>  (1) 
C3H8NO5P

>  <PUBCHEM_MOLECULAR_WEIGHT>  (1) 
169.07

>  <PUBCHEM_OPENEYE_CAN_SMILES>  (1) 
C(C(=O)COP(=O)(O)O)N

>  <PUBCHEM_OPENEYE_ISO_SMILES>  (1) 
C(C(=O)COP(=O)(O)O)N

>  <PUBCHEM_CACTVS_TPSA>  (1) 
110

>  <PUBCHEM_MONOISOTOPIC_WEIGHT>  (1) 
169.014009

>  <PUBCHEM_TOTAL_CHARGE>  (1) 
0

>  <PUBCHEM_HEAVY_ATOM_COUNT>  (1) 
10

>  <PUBCHEM_ATOM_DEF_STEREO_COUNT>  (1) 
0

>  <PUBCHEM_ATOM_UDEF_STEREO_COUNT>  (1) 
0

>  <PUBCHEM_BOND_DEF_STEREO_COUNT>  (1) 
0

>  <PUBCHEM_BOND_UDEF_STEREO_COUNT>  (1) 
0

>  <PUBCHEM_ISOTOPIC_ATOM_COUNT>  (1) 
0

>  <PUBCHEM_COMPONENT_COUNT>  (1) 
1

>  <PUBCHEM_CACTVS_TAUTO_COUNT>  (1) 
-1

>  <PUBCHEM_COORDINATE_TYPE>  (1) 
1
5
255

$$$$
