501
     RDKit          2D

 14 13  0  0  1  0  0  0  0  0999 V2000
   -5.8403    0.4514    0.0000 O   0  0  0  0  0  0  0  0  0  0  0  0
   -4.5708   -1.8154    0.0000 O   0  0  0  0  0  0  0  0  0  0  0  0
   -3.2228    1.9173    0.0000 N   0  0  0  0  0  0  0  0  0  0  0  0
    1.9533    0.3495    0.0000 N   0  0  0  0  0  0  0  0  0  0  0  0
    4.5511    0.3155    0.0000 N   0  0  0  0  0  0  0  0  0  0  0  0
    3.2228   -1.9173    0.0000 N   0  0  0  0  0  0  0  0  0  0  0  0
   -1.9533   -0.3495    0.0000 C   0  0  0  0  0  0  0  0  0  0  0  0
   -0.6446    0.3835    0.0000 C   0  0  0  0  0  0  0  0  0  0  0  0
   -3.2424    0.4174    0.0000 C   0  0  0  0  0  0  0  0  0  0  0  0
    0.6446   -0.3835    0.0000 C   0  0  0  0  0  0  0  0  0  0  0  0
   -4.5511   -0.3155    0.0000 C   0  0  0  0  0  0  0  0  0  0  0  0
    3.2424   -0.4174    0.0000 C   0  0  0  0  0  0  0  0  0  0  0  0
    5.8403   -0.4514    0.0000 C   0  0  0  0  0  0  0  0  0  0  0  0
    4.5708    1.8154    0.0000 C   0  0  0  0  0  0  0  0  0  0  0  0
  1 11  1  0
  2 11  2  0
  3  9  1  0
  4 10  1  0
  4 12  2  0
  5 12  1  0
  5 13  1  0
  5 14  1  0
  6 12  1  0
  7  8  1  0
  7  9  1  0
  8 10  1  0
  9 11  1  0
M  END
>  <PUBCHEM_COMPOUND_CID>  (1) 
501

>  <PUBCHEM_COMPOUND_CANONICALIZED>  (1) 
1

>  <PUBCHEM_CACTVS_COMPLEXITY>  (1) 
215

>  <PUBCHEM_CACTVS_HBOND_ACCEPTOR>  (1) 
4

>  <PUBCHEM_CACTVS_HBOND_DONOR>  (1) 
3

>  <PUBCHEM_CACTVS_ROTATABLE_BOND>  (1) 
6

>  <PUBCHEM_CACTVS_SUBSKEYS>  (1) 
AAADceBzsAAAAAAAAAAAAAAAAAAAAAAAAAAAAAAAAAAAAAAAAAAAHgAQCAAACCjBgAQDCANAAgAoAACQLAAAAAEAAAABAIGIAACCABIAgAAAQAAEEAAAAACYEQAAAAAAAAAAAAAAAAAAAAAAAAAAAAAAAA==

>  <PUBCHEM_IUPAC_OPENEYE_NAME>  (1) 
2-amino-5-[[amino(dimethylamino)methylene]amino]pentanoic acid

>  <PUBCHEM_IUPAC_CAS_NAME>  (1) 
2-amino-5-[[amino(dimethylamino)methylidene]amino]pentanoic acid

>  <PUBCHEM_IUPAC_NAME_MARKUP>  (1) 
2-amino-5-[[amino(dimethylamino)methylidene]amino]pentanoic acid

>  <PUBCHEM_IUPAC_NAME>  (1) 
2-amino-5-[[amino(dimethylamino)methylidene]amino]pentanoic acid

>  <PUBCHEM_IUPAC_SYSTEMATIC_NAME>  (1) 
2-azanyl-5-[[azanyl(dimethylamino)methylidene]amino]pentanoic acid

>  <PUBCHEM_IUPAC_TRADITIONAL_NAME>  (1) 
2-amino-5-[[amino(dimethylamino)methylene]amino]valeric acid

>  <PUBCHEM_IUPAC_INCHI>  (1) 
InChI=1S/C8H18N4O2/c1-12(2)8(10)11-5-3-4-6(9)7(13)14/h6H,3-5,9H2,1-2H3,(H2,10,11)(H,13,14)

>  <PUBCHEM_IUPAC_INCHIKEY>  (1) 
YDGMGEXADBMOMJ-UHFFFAOYSA-N

>  <PUBCHEM_XLOGP3_AA>  (1) 
-3.6

>  <PUBCHEM_EXACT_MASS>  (1) 
202.142976

>  <PUBCHEM_MOLECULAR_FORMULA>  (1) 
C8H18N4O2

>  <PUBCHEM_MOLECULAR_WEIGHT>  (1) 
202.25

>  <PUBCHEM_OPENEYE_CAN_SMILES>  (1) 
CN(C)C(=NCCCC(C(=O)O)N)N

>  <PUBCHEM_OPENEYE_ISO_SMILES>  (1) 
CN(C)C(=NCCCC(C(=O)O)N)N

>  <PUBCHEM_CACTVS_TPSA>  (1) 
105

>  <PUBCHEM_MONOISOTOPIC_WEIGHT>  (1) 
202.142976

>  <PUBCHEM_TOTAL_CHARGE>  (1) 
0

>  <PUBCHEM_HEAVY_ATOM_COUNT>  (1) 
14

>  <PUBCHEM_ATOM_DEF_STEREO_COUNT>  (1) 
0

>  <PUBCHEM_ATOM_UDEF_STEREO_COUNT>  (1) 
1

>  <PUBCHEM_BOND_DEF_STEREO_COUNT>  (1) 
0

>  <PUBCHEM_BOND_UDEF_STEREO_COUNT>  (1) 
0

>  <PUBCHEM_ISOTOPIC_ATOM_COUNT>  (1) 
0

>  <PUBCHEM_COMPONENT_COUNT>  (1) 
1

>  <PUBCHEM_CACTVS_TAUTO_COUNT>  (1) 
-1

>  <PUBCHEM_COORDINATE_TYPE>  (1) 
1
5
255

>  <PUBCHEM_BONDANNOTATIONS>  (1) 
9  3  3

$$$$
