502
     RDKit          2D

  9  8  0  0  0  0  0  0  0  0999 V2000
    2.9595   -1.5338    0.0000 O   0  0  0  0  0  0  0  0  0  0  0  0
    1.5596    0.6549    0.0000 N   0  0  0  0  0  0  0  0  0  0  0  0
   -4.8948   -0.3895    0.0000 N   0  0  0  0  0  0  0  0  0  0  0  0
    4.1550    0.7729    0.0000 N   0  0  0  0  0  0  0  0  0  0  0  0
   -1.0358    0.5368    0.0000 C   0  0  0  0  0  0  0  0  0  0  0  0
   -2.2994   -0.2714    0.0000 C   0  0  0  0  0  0  0  0  0  0  0  0
    0.2960   -0.1534    0.0000 C   0  0  0  0  0  0  0  0  0  0  0  0
   -3.6312    0.4188    0.0000 C   0  0  0  0  0  0  0  0  0  0  0  0
    2.8913   -0.0353    0.0000 C   0  0  0  0  0  0  0  0  0  0  0  0
  1  9  2  0
  2  7  1  0
  2  9  1  0
  3  8  1  0
  4  9  1  0
  5  6  1  0
  5  7  1  0
  6  8  1  0
M  END
>  <PUBCHEM_COMPOUND_CID>  (1) 
502

>  <PUBCHEM_COMPOUND_CANONICALIZED>  (1) 
1

>  <PUBCHEM_CACTVS_COMPLEXITY>  (1) 
84.3

>  <PUBCHEM_CACTVS_HBOND_ACCEPTOR>  (1) 
2

>  <PUBCHEM_CACTVS_HBOND_DONOR>  (1) 
3

>  <PUBCHEM_CACTVS_ROTATABLE_BOND>  (1) 
4

>  <PUBCHEM_CACTVS_SUBSKEYS>  (1) 
AAADccBjIAAAAAAAAAAAAAAAAAAAAAAAAAAAAAAAAAAAAAAAAAAAHgAQAAAACADBAAQBAALAAAAIAAAAEAAAAAAAAAAAAIAIAACAAAAAgAAEAAAAFgIAAAAAAAAAAAAAAAAAAAAAAAAAAAAAAAAAAAAAAA==

>  <PUBCHEM_IUPAC_OPENEYE_NAME>  (1) 
4-aminobutylurea

>  <PUBCHEM_IUPAC_CAS_NAME>  (1) 
4-aminobutylurea

>  <PUBCHEM_IUPAC_NAME_MARKUP>  (1) 
4-aminobutylurea

>  <PUBCHEM_IUPAC_NAME>  (1) 
4-aminobutylurea

>  <PUBCHEM_IUPAC_SYSTEMATIC_NAME>  (1) 
1-(4-azanylbutyl)urea

>  <PUBCHEM_IUPAC_TRADITIONAL_NAME>  (1) 
4-aminobutylurea

>  <PUBCHEM_IUPAC_INCHI>  (1) 
InChI=1S/C5H13N3O/c6-3-1-2-4-8-5(7)9/h1-4,6H2,(H3,7,8,9)

>  <PUBCHEM_IUPAC_INCHIKEY>  (1) 
YANFYYGANIYHGI-UHFFFAOYSA-N

>  <PUBCHEM_XLOGP3>  (1) 
-1.1

>  <PUBCHEM_EXACT_MASS>  (1) 
131.105862

>  <PUBCHEM_MOLECULAR_FORMULA>  (1) 
C5H13N3O

>  <PUBCHEM_MOLECULAR_WEIGHT>  (1) 
131.18

>  <PUBCHEM_OPENEYE_CAN_SMILES>  (1) 
C(CCNC(=O)N)CN

>  <PUBCHEM_OPENEYE_ISO_SMILES>  (1) 
C(CCNC(=O)N)CN

>  <PUBCHEM_CACTVS_TPSA>  (1) 
81.1

>  <PUBCHEM_MONOISOTOPIC_WEIGHT>  (1) 
131.105862

>  <PUBCHEM_TOTAL_CHARGE>  (1) 
0

>  <PUBCHEM_HEAVY_ATOM_COUNT>  (1) 
9

>  <PUBCHEM_ATOM_DEF_STEREO_COUNT>  (1) 
0

>  <PUBCHEM_ATOM_UDEF_STEREO_COUNT>  (1) 
0

>  <PUBCHEM_BOND_DEF_STEREO_COUNT>  (1) 
0

>  <PUBCHEM_BOND_UDEF_STEREO_COUNT>  (1) 
0

>  <PUBCHEM_ISOTOPIC_ATOM_COUNT>  (1) 
0

>  <PUBCHEM_COMPONENT_COUNT>  (1) 
1

>  <PUBCHEM_CACTVS_TAUTO_COUNT>  (1) 
-1

>  <PUBCHEM_COORDINATE_TYPE>  (1) 
1
5
255

$$$$
