503
     RDKit          2D

  8  7  0  0  0  0  0  0  0  0999 V2000
   -0.7931    1.4169    0.0000 O   0  0  0  0  0  0  0  0  0  0  0  0
    1.8048    1.3823    0.0000 O   0  0  0  0  0  0  0  0  0  0  0  0
    0.4759   -0.8502    0.0000 N   0  0  0  0  0  0  0  0  0  0  0  0
   -3.4109   -0.0483    0.0000 N   0  0  0  0  0  0  0  0  0  0  0  0
    3.0737   -0.8848    0.0000 N   0  0  0  0  0  0  0  0  0  0  0  0
   -2.1220   -0.8156    0.0000 C   0  0  0  0  0  0  0  0  0  0  0  0
   -0.8131   -0.0829    0.0000 C   0  0  0  0  0  0  0  0  0  0  0  0
    1.7848   -0.1175    0.0000 C   0  0  0  0  0  0  0  0  0  0  0  0
  1  7  2  0
  2  8  2  0
  3  7  1  0
  3  8  1  0
  4  6  1  0
  5  8  1  0
  6  7  1  0
M  END
>  <PUBCHEM_COMPOUND_CID>  (1) 
503

>  <PUBCHEM_COMPOUND_CANONICALIZED>  (1) 
1

>  <PUBCHEM_CACTVS_COMPLEXITY>  (1) 
111

>  <PUBCHEM_CACTVS_HBOND_ACCEPTOR>  (1) 
3

>  <PUBCHEM_CACTVS_HBOND_DONOR>  (1) 
3

>  <PUBCHEM_CACTVS_ROTATABLE_BOND>  (1) 
1

>  <PUBCHEM_CACTVS_SUBSKEYS>  (1) 
AAADcYBDMAAAAAAAAAAAAAAAAAAAAAAAAAAAAAAAAAAAAAAAAAAAHgAQAAAAAADBgAQBAALAAAAIAAEQEAAAAAAAAAAAAICAAACAQAAAAAAQAAAAFSIAAAAAAAAAAAAAAAAAAAAAAAAAAAAAAAAAAAAAAA==

>  <PUBCHEM_IUPAC_OPENEYE_NAME>  (1) 
2-amino-N-carbamoyl-acetamide

>  <PUBCHEM_IUPAC_CAS_NAME>  (1) 
2-amino-N-carbamoylacetamide

>  <PUBCHEM_IUPAC_NAME_MARKUP>  (1) 
2-amino-<I>N</I>-carbamoylacetamide

>  <PUBCHEM_IUPAC_NAME>  (1) 
2-amino-N-carbamoylacetamide

>  <PUBCHEM_IUPAC_SYSTEMATIC_NAME>  (1) 
N-aminocarbonyl-2-azanyl-ethanamide

>  <PUBCHEM_IUPAC_TRADITIONAL_NAME>  (1) 
2-amino-N-carbamoyl-acetamide

>  <PUBCHEM_IUPAC_INCHI>  (1) 
InChI=1S/C3H7N3O2/c4-1-2(7)6-3(5)8/h1,4H2,(H3,5,6,7,8)

>  <PUBCHEM_IUPAC_INCHIKEY>  (1) 
BEDUQUWHWOZQNJ-UHFFFAOYSA-N

>  <PUBCHEM_XLOGP3_AA>  (1) 
-1.6

>  <PUBCHEM_EXACT_MASS>  (1) 
117.053826

>  <PUBCHEM_MOLECULAR_FORMULA>  (1) 
C3H7N3O2

>  <PUBCHEM_MOLECULAR_WEIGHT>  (1) 
117.11

>  <PUBCHEM_OPENEYE_CAN_SMILES>  (1) 
C(C(=O)NC(=O)N)N

>  <PUBCHEM_OPENEYE_ISO_SMILES>  (1) 
C(C(=O)NC(=O)N)N

>  <PUBCHEM_CACTVS_TPSA>  (1) 
98.2

>  <PUBCHEM_MONOISOTOPIC_WEIGHT>  (1) 
117.053826

>  <PUBCHEM_TOTAL_CHARGE>  (1) 
0

>  <PUBCHEM_HEAVY_ATOM_COUNT>  (1) 
8

>  <PUBCHEM_ATOM_DEF_STEREO_COUNT>  (1) 
0

>  <PUBCHEM_ATOM_UDEF_STEREO_COUNT>  (1) 
0

>  <PUBCHEM_BOND_DEF_STEREO_COUNT>  (1) 
0

>  <PUBCHEM_BOND_UDEF_STEREO_COUNT>  (1) 
0

>  <PUBCHEM_ISOTOPIC_ATOM_COUNT>  (1) 
0

>  <PUBCHEM_COMPONENT_COUNT>  (1) 
1

>  <PUBCHEM_CACTVS_TAUTO_COUNT>  (1) 
-1

>  <PUBCHEM_COORDINATE_TYPE>  (1) 
1
5
255

$$$$
