508
     RDKit          2D

 35 37  0  0  1  0  0  0  0  0999 V2000
   -2.1137   -2.2905    0.0000 P   0  0  0  0  0  0  0  0  0  0  0  0
   -4.7117   -2.2634    0.0000 P   0  0  0  0  0  0  0  0  0  0  0  0
   -5.9872    0.0000    0.0000 P   0  0  0  0  0  0  0  0  0  0  0  0
   -4.6647    2.2363    0.0000 P   0  0  0  0  0  0  0  0  0  0  0  0
    1.8794    0.0579    0.0000 O   0  0  0  0  0  0  0  0  0  0  0  0
    2.7826    3.8328    0.0000 O   0  0  0  0  0  0  0  0  0  0  0  0
   -0.4164    3.1876    0.0000 O   0  0  0  0  0  0  0  0  0  0  0  0
   -0.8069   -1.5541    0.0000 O   0  0  0  0  0  0  0  0  0  0  0  0
   -3.4205   -3.0269    0.0000 O   0  0  0  0  0  0  0  0  0  0  0  0
   -1.3773   -3.5973    0.0000 O   0  0  0  0  0  0  0  0  0  0  0  0
   -2.8501   -0.9837    0.0000 O   0  0  0  0  0  0  0  0  0  0  0  0
   -6.0028   -1.4999    0.0000 O   0  0  0  0  0  0  0  0  0  0  0  0
   -5.4752   -3.5546    0.0000 O   0  0  0  0  0  0  0  0  0  0  0  0
   -3.9482   -0.9723    0.0000 O   0  0  0  0  0  0  0  0  0  0  0  0
   -5.9715    1.4999    0.0000 O   0  0  0  0  0  0  0  0  0  0  0  0
   -4.4873   -0.0156    0.0000 O   0  0  0  0  0  0  0  0  0  0  0  0
   -7.4871    0.0156    0.0000 O   0  0  0  0  0  0  0  0  0  0  0  0
   -3.9283    0.9296    0.0000 O   0  0  0  0  0  0  0  0  0  0  0  0
   -3.3580    2.9728    0.0000 O   0  0  0  0  0  0  0  0  0  0  0  0
   -5.4012    3.5431    0.0000 O   0  0  0  0  0  0  0  0  0  0  0  0
    4.3847    0.9898    0.0000 N   0  0  0  0  0  0  0  0  0  0  0  0
    6.7638    1.4696    0.0000 N   0  0  0  0  0  0  0  0  0  0  0  0
    4.6427   -1.7387    0.0000 N   0  0  0  0  0  0  0  0  0  0  0  0
    7.1052   -2.5673    0.0000 N   0  0  0  0  0  0  0  0  0  0  0  0
    9.0539   -0.8490    0.0000 N   0  0  0  0  0  0  0  0  0  0  0  0
    2.1582    2.4689    0.0000 C   0  0  0  0  0  0  0  0  0  0  0  0
    0.6878    2.1723    0.0000 C   0  0  0  0  0  0  0  0  0  0  0  0
    2.8946    1.1621    0.0000 C   0  0  0  0  0  0  0  0  0  0  0  0
    0.5155    0.6823    0.0000 C   0  0  0  0  0  0  0  0  0  0  0  0
   -0.7913   -0.0542    0.0000 C   0  0  0  0  0  0  0  0  0  0  0  0
    5.1211   -0.3170    0.0000 C   0  0  0  0  0  0  0  0  0  0  0  0
    5.4000    2.0939    0.0000 C   0  0  0  0  0  0  0  0  0  0  0  0
    6.5915   -0.0205    0.0000 C   0  0  0  0  0  0  0  0  0  0  0  0
    7.5835   -1.1456    0.0000 C   0  0  0  0  0  0  0  0  0  0  0  0
    5.6348   -2.8638    0.0000 C   0  0  0  0  0  0  0  0  0  0  0  0
  1  8  1  0
  1  9  1  0
  1 10  1  0
  1 11  2  0
  2  9  1  0
  2 12  1  0
  2 13  1  0
  2 14  2  0
  3 12  1  0
  3 15  1  0
  3 16  1  0
  3 17  2  0
  4 15  1  0
  4 18  1  0
  4 19  1  0
  4 20  2  0
  5 28  1  0
  5 29  1  0
  6 26  1  0
  7 27  1  0
  8 30  1  0
 21 28  1  0
 21 31  1  0
 21 32  1  0
 22 32  2  0
 22 33  1  0
 23 31  1  0
 23 35  2  0
 24 34  2  0
 24 35  1  0
 25 34  1  0
 26 27  1  0
 26 28  1  0
 27 29  1  0
 29 30  1  0
 31 33  2  0
 33 34  1  0
M  END
>  <PUBCHEM_COMPOUND_CID>  (1) 
508

>  <PUBCHEM_COMPOUND_CANONICALIZED>  (1) 
1

>  <PUBCHEM_CACTVS_COMPLEXITY>  (1) 
967

>  <PUBCHEM_CACTVS_HBOND_ACCEPTOR>  (1) 
20

>  <PUBCHEM_CACTVS_HBOND_DONOR>  (1) 
8

>  <PUBCHEM_CACTVS_ROTATABLE_BOND>  (1) 
10

>  <PUBCHEM_CACTVS_SUBSKEYS>  (1) 
AAADceBzvgOAAAAAAAAAAAAAAAAAAWJAAAAsAAAAAAAAAFgB+AAAHgAQCCAACBzhlwYF8L9MFxCgQQZhZICAgC0REKABUCAoVBCDWAJAyEAeRAgPAALTACDwMAIAAAAAAAAAAAAAAAAAAAAAAAAAAAAAAA==

>  <PUBCHEM_IUPAC_OPENEYE_NAME>  (1) 
[[5-(6-aminopurin-9-yl)-3,4-dihydroxy-tetrahydrofuran-2-yl]methoxy-hydroxy-phosphoryl] [hydroxy(phosphonooxy)phosphoryl] hydrogen phosphate

>  <PUBCHEM_IUPAC_CAS_NAME>  (1) 
[[5-(6-aminopurin-9-yl)-3,4-dihydroxy-2-oxolanyl]methoxy-hydroxyphosphoryl] [hydroxy(phosphonooxy)phosphoryl] hydrogen phosphate

>  <PUBCHEM_IUPAC_NAME_MARKUP>  (1) 
[[5-(6-aminopurin-9-yl)-3,4-dihydroxyoxolan-2-yl]methoxy-hydroxyphosphoryl] [hydroxy(phosphonooxy)phosphoryl] hydrogen phosphate

>  <PUBCHEM_IUPAC_NAME>  (1) 
[[5-(6-aminopurin-9-yl)-3,4-dihydroxyoxolan-2-yl]methoxy-hydroxyphosphoryl] [hydroxy(phosphonooxy)phosphoryl] hydrogen phosphate

>  <PUBCHEM_IUPAC_SYSTEMATIC_NAME>  (1) 
[[5-(6-aminopurin-9-yl)-3,4-bis(oxidanyl)oxolan-2-yl]methoxy-oxidanyl-phosphoryl] [oxidanyl(phosphonooxy)phosphoryl] hydrogen phosphate

>  <PUBCHEM_IUPAC_TRADITIONAL_NAME>  (1) 
[(5-adenin-9-yl-3,4-dihydroxy-tetrahydrofuran-2-yl)methoxy-hydroxy-phosphoryl] [hydroxy(phosphonooxy)phosphoryl] hydrogen phosphate

>  <PUBCHEM_IUPAC_INCHI>  (1) 
InChI=1S/C10H17N5O16P4/c11-8-5-9(13-2-12-8)15(3-14-5)10-7(17)6(16)4(28-10)1-27-33(21,22)30-35(25,26)31-34(23,24)29-32(18,19)20/h2-4,6-7,10,16-17H,1H2,(H,21,22)(H,23,24)(H,25,26)(H2,11,12,13)(H2,18,19,20)

>  <PUBCHEM_IUPAC_INCHIKEY>  (1) 
WWMWAMFHUSTZTA-UHFFFAOYSA-N

>  <PUBCHEM_XLOGP3>  (1) 
-6.8

>  <PUBCHEM_EXACT_MASS>  (1) 
586.962077

>  <PUBCHEM_MOLECULAR_FORMULA>  (1) 
C10H17N5O16P4

>  <PUBCHEM_MOLECULAR_WEIGHT>  (1) 
587.16

>  <PUBCHEM_OPENEYE_CAN_SMILES>  (1) 
C1=NC(=C2C(=N1)N(C=N2)C3C(C(C(O3)COP(=O)(O)OP(=O)(O)OP(=O)(O)OP(=O)(O)O)O)O)N

>  <PUBCHEM_OPENEYE_ISO_SMILES>  (1) 
C1=NC(=C2C(=N1)N(C=N2)C3C(C(C(O3)COP(=O)(O)OP(=O)(O)OP(=O)(O)OP(=O)(O)O)O)O)N

>  <PUBCHEM_CACTVS_TPSA>  (1) 
326

>  <PUBCHEM_MONOISOTOPIC_WEIGHT>  (1) 
586.962077

>  <PUBCHEM_TOTAL_CHARGE>  (1) 
0

>  <PUBCHEM_HEAVY_ATOM_COUNT>  (1) 
35

>  <PUBCHEM_ATOM_DEF_STEREO_COUNT>  (1) 
0

>  <PUBCHEM_ATOM_UDEF_STEREO_COUNT>  (1) 
4

>  <PUBCHEM_BOND_DEF_STEREO_COUNT>  (1) 
0

>  <PUBCHEM_BOND_UDEF_STEREO_COUNT>  (1) 
0

>  <PUBCHEM_ISOTOPIC_ATOM_COUNT>  (1) 
0

>  <PUBCHEM_COMPONENT_COUNT>  (1) 
1

>  <PUBCHEM_CACTVS_TAUTO_COUNT>  (1) 
-1

>  <PUBCHEM_COORDINATE_TYPE>  (1) 
1
5
255

>  <PUBCHEM_BONDANNOTATIONS>  (1) 
28  21  3
21  31  8
21  32  8
22  32  8
22  33  8
23  31  8
23  35  8
24  34  8
24  35  8
29  30  3
31  33  8
33  34  8
26  6  3
27  7  3

$$$$
