510
     RDKit          2D

 12 12  0  0  0  0  0  0  0  0999 V2000
    1.5000   -0.0000    0.0000 P   0  0  0  0  0  0  0  0  0  0  0  0
   -0.7500   -1.2990    0.0000 P   0  0  0  0  0  0  0  0  0  0  0  0
   -0.7500    1.2990    0.0000 P   0  0  0  0  0  0  0  0  0  0  0  0
    0.7500   -1.2990    0.0000 O   0  0  0  0  0  0  0  0  0  0  0  0
    0.7500    1.2990    0.0000 O   0  0  0  0  0  0  0  0  0  0  0  0
   -1.5000    0.0000    0.0000 O   0  0  0  0  0  0  0  0  0  0  0  0
    2.6491   -0.9642    0.0000 O   0  0  0  0  0  0  0  0  0  0  0  0
   -2.1595   -1.8121    0.0000 O   0  0  0  0  0  0  0  0  0  0  0  0
   -0.4895    2.7762    0.0000 O   0  0  0  0  0  0  0  0  0  0  0  0
    2.6491    0.9642    0.0000 O   0  0  0  0  0  0  0  0  0  0  0  0
   -0.4895   -2.7762    0.0000 O   0  0  0  0  0  0  0  0  0  0  0  0
   -2.1595    1.8121    0.0000 O   0  0  0  0  0  0  0  0  0  0  0  0
  1  4  1  0
  1  5  1  0
  1  7  1  0
  1 10  2  0
  2  4  1  0
  2  6  1  0
  2  8  1  0
  2 11  2  0
  3  5  1  0
  3  6  1  0
  3  9  1  0
  3 12  2  0
M  END
>  <PUBCHEM_COMPOUND_CID>  (1) 
510

>  <PUBCHEM_COMPOUND_CANONICALIZED>  (1) 
1

>  <PUBCHEM_CACTVS_COMPLEXITY>  (1) 
248

>  <PUBCHEM_CACTVS_HBOND_ACCEPTOR>  (1) 
9

>  <PUBCHEM_CACTVS_HBOND_DONOR>  (1) 
3

>  <PUBCHEM_CACTVS_ROTATABLE_BOND>  (1) 
0

>  <PUBCHEM_CACTVS_SUBSKEYS>  (1) 
AAADcQAAPAMAAAAAAAAAAAAAAAAAAAAAAAAkAAAAAAAAAAAAAAAAAAAACCAAAAAAAAAAAAAAABAAQAAAAIAAAAAAAAAAAAAAAAAAAAAAAAAAAAAAAAAAAAAAAAAAAAAAAAAAAAAAAAAAAAAAAAAAAAAAAA==

>  <PUBCHEM_IUPAC_OPENEYE_NAME>  (1) 
2,4,6-trihydroxy-1,3,5,2lambda5,4lambda5,6lambda5-trioxatriphosphinane 2,4,6-trioxide

>  <PUBCHEM_IUPAC_CAS_NAME>  (1) 
2,4,6-trihydroxy-1,3,5,2lambda5,4lambda5,6lambda5-trioxatriphosphorinane 2,4,6-trioxide

>  <PUBCHEM_IUPAC_NAME_MARKUP>  (1) 
2,4,6-trihydroxy-1,3,5,2&lambda;<SUP>5</SUP>,4&lambda;<SUP>5</SUP>,6&lambda;<SUP>5</SUP>-trioxatriphosphinane 2,4,6-trioxide

>  <PUBCHEM_IUPAC_NAME>  (1) 
2,4,6-trihydroxy-1,3,5,2lambda5,4lambda5,6lambda5-trioxatriphosphinane 2,4,6-trioxide

>  <PUBCHEM_IUPAC_SYSTEMATIC_NAME>  (1) 
2,4,6-tris(oxidanyl)-1,3,5,2lambda5,4lambda5,6lambda5-trioxatriphosphinane 2,4,6-trioxide

>  <PUBCHEM_IUPAC_TRADITIONAL_NAME>  (1) 
2,4,6-trihydroxy-1,3,5,2lambda5,4lambda5,6lambda5-trioxatriphosphorinane 2,4,6-trioxide

>  <PUBCHEM_IUPAC_INCHI>  (1) 
InChI=1S/H3O9P3/c1-10(2)7-11(3,4)9-12(5,6)8-10/h(H,1,2)(H,3,4)(H,5,6)

>  <PUBCHEM_IUPAC_INCHIKEY>  (1) 
AZSFNUJOCKMOGB-UHFFFAOYSA-N

>  <PUBCHEM_XLOGP3_AA>  (1) 
-3.3

>  <PUBCHEM_EXACT_MASS>  (1) 
239.898993

>  <PUBCHEM_MOLECULAR_FORMULA>  (1) 
H3O9P3

>  <PUBCHEM_MOLECULAR_WEIGHT>  (1) 
239.94

>  <PUBCHEM_OPENEYE_CAN_SMILES>  (1) 
OP1(=O)OP(=O)(OP(=O)(O1)O)O

>  <PUBCHEM_OPENEYE_ISO_SMILES>  (1) 
OP1(=O)OP(=O)(OP(=O)(O1)O)O

>  <PUBCHEM_CACTVS_TPSA>  (1) 
140

>  <PUBCHEM_MONOISOTOPIC_WEIGHT>  (1) 
239.898993

>  <PUBCHEM_TOTAL_CHARGE>  (1) 
0

>  <PUBCHEM_HEAVY_ATOM_COUNT>  (1) 
12

>  <PUBCHEM_ATOM_DEF_STEREO_COUNT>  (1) 
0

>  <PUBCHEM_ATOM_UDEF_STEREO_COUNT>  (1) 
0

>  <PUBCHEM_BOND_DEF_STEREO_COUNT>  (1) 
0

>  <PUBCHEM_BOND_UDEF_STEREO_COUNT>  (1) 
0

>  <PUBCHEM_ISOTOPIC_ATOM_COUNT>  (1) 
0

>  <PUBCHEM_COMPONENT_COUNT>  (1) 
1

>  <PUBCHEM_CACTVS_TAUTO_COUNT>  (1) 
-1

>  <PUBCHEM_COORDINATE_TYPE>  (1) 
1
5
255

$$$$
