511
     RDKit          2D

 30 31  0  0  1  0  0  0  0  0999 V2000
    0.6978   -0.2388    0.0000 S   0  0  0  0  0  0  0  0  0  0  0  0
   -4.6603   -1.7122    0.0000 P   0  0  0  0  0  0  0  0  0  0  0  0
   -5.9516    0.5423    0.0000 P   0  0  0  0  0  0  0  0  0  0  0  0
   -4.6448    2.7878    0.0000 P   0  0  0  0  0  0  0  0  0  0  0  0
   -3.3638   -2.4666    0.0000 O   0  0  0  0  0  0  0  0  0  0  0  0
   -5.9567   -0.9577    0.0000 O   0  0  0  0  0  0  0  0  0  0  0  0
   -5.4147   -3.0086    0.0000 O   0  0  0  0  0  0  0  0  0  0  0  0
   -3.9058   -0.4157    0.0000 O   0  0  0  0  0  0  0  0  0  0  0  0
   -5.9464    2.0423    0.0000 O   0  0  0  0  0  0  0  0  0  0  0  0
   -4.4516    0.5371    0.0000 O   0  0  0  0  0  0  0  0  0  0  0  0
   -7.4515    0.5474    0.0000 O   0  0  0  0  0  0  0  0  0  0  0  0
   -3.8993    1.4862    0.0000 O   0  0  0  0  0  0  0  0  0  0  0  0
   -3.3432    3.5333    0.0000 O   0  0  0  0  0  0  0  0  0  0  0  0
   -5.3903    4.0894    0.0000 O   0  0  0  0  0  0  0  0  0  0  0  0
    2.9116   -1.2336    0.0000 N   0  0  0  0  0  0  0  0  0  0  0  0
    7.6658    0.8635    0.0000 N   0  0  0  0  0  0  0  0  0  0  0  0
    5.5691    2.3979    0.0000 N   0  0  0  0  0  0  0  0  0  0  0  0
    7.3853   -1.7194    0.0000 N   0  0  0  0  0  0  0  0  0  0  0  0
    1.9041   -2.3449    0.0000 C   0  0  0  0  0  0  0  0  0  0  0  0
    0.5359   -1.7300    0.0000 C   0  0  0  0  0  0  0  0  0  0  0  0
    4.4028   -1.3955    0.0000 C   0  0  0  0  0  0  0  0  0  0  0  0
   -0.7657   -2.4756    0.0000 C   0  0  0  0  0  0  0  0  0  0  0  0
    2.1661    0.0680    0.0000 C   0  0  0  0  0  0  0  0  0  0  0  0
   -2.0622   -1.7211    0.0000 C   0  0  0  0  0  0  0  0  0  0  0  0
    2.2109   -3.8131    0.0000 C   0  0  0  0  0  0  0  0  0  0  0  0
    5.2887   -0.1850    0.0000 C   0  0  0  0  0  0  0  0  0  0  0  0
    6.7799   -0.3470    0.0000 C   0  0  0  0  0  0  0  0  0  0  0  0
    4.6833    1.1874    0.0000 C   0  0  0  0  0  0  0  0  0  0  0  0
    7.0604    2.2359    0.0000 C   0  0  0  0  0  0  0  0  0  0  0  0
    7.9462    3.4464    0.0000 C   0  0  0  0  0  0  0  0  0  0  0  0
  1 20  1  0
  1 23  1  0
  2  5  1  0
  2  6  1  0
  2  7  1  0
  2  8  2  0
  3  6  1  0
  3  9  1  0
  3 10  1  0
  3 11  2  0
  4  9  1  0
  4 12  1  0
  4 13  1  0
  4 14  2  0
  5 24  1  0
 15 19  1  0
 15 21  1  0
 15 23  2  0
 16 27  2  0
 16 29  1  0
 17 28  1  0
 17 29  2  0
 18 27  1  0
 19 20  2  0
 19 25  1  0
 20 22  1  0
 21 26  1  0
 22 24  1  0
 26 27  1  0
 26 28  2  0
 29 30  1  0
M  CHG  1  15   1
M  END
>  <PUBCHEM_COMPOUND_CID>  (1) 
511

>  <PUBCHEM_COMPOUND_CANONICALIZED>  (1) 
1

>  <PUBCHEM_CACTVS_COMPLEXITY>  (1) 
728

>  <PUBCHEM_CACTVS_HBOND_ACCEPTOR>  (1) 
14

>  <PUBCHEM_CACTVS_HBOND_DONOR>  (1) 
5

>  <PUBCHEM_CACTVS_ROTATABLE_BOND>  (1) 
10

>  <PUBCHEM_CACTVS_SUBSKEYS>  (1) 
AAADceBzvANAAAAAAAAAAAAAAAAAAWAAAAAsAAAAAAAAAAAB4AAAHgQQCCAADAjh3wavsZdMERikQxZnZICA8KlxCLgBWDQ4RBiAKIJgyUAEBAgsQAPISCKgAAAAAAAAAAAAAAAAAAAAAAAAAAAAAAAAAA==

>  <PUBCHEM_IUPAC_OPENEYE_NAME>  (1) 
[2-[3-[(4-amino-2-methyl-pyrimidin-5-yl)methyl]-4-methyl-thiazol-3-ium-5-yl]ethoxy-hydroxy-phosphoryl] phosphono hydrogen phosphate

>  <PUBCHEM_IUPAC_CAS_NAME>  (1) 
[2-[3-[(4-amino-2-methyl-5-pyrimidinyl)methyl]-4-methyl-5-thiazol-3-iumyl]ethoxy-hydroxyphosphoryl] phosphono hydrogen phosphate

>  <PUBCHEM_IUPAC_NAME_MARKUP>  (1) 
[2-[3-[(4-amino-2-methylpyrimidin-5-yl)methyl]-4-methyl-1,3-thiazol-3-ium-5-yl]ethoxy-hydroxyphosphoryl] phosphono hydrogen phosphate

>  <PUBCHEM_IUPAC_NAME>  (1) 
[2-[3-[(4-amino-2-methylpyrimidin-5-yl)methyl]-4-methyl-1,3-thiazol-3-ium-5-yl]ethoxy-hydroxyphosphoryl] phosphono hydrogen phosphate

>  <PUBCHEM_IUPAC_SYSTEMATIC_NAME>  (1) 
[2-[3-[(4-azanyl-2-methyl-pyrimidin-5-yl)methyl]-4-methyl-1,3-thiazol-3-ium-5-yl]ethoxy-oxidanyl-phosphoryl] phosphono hydrogen phosphate

>  <PUBCHEM_IUPAC_TRADITIONAL_NAME>  (1) 
[2-[3-[(4-amino-2-methyl-pyrimidin-5-yl)methyl]-4-methyl-thiazol-3-ium-5-yl]ethoxy-hydroxy-phosphoryl] phosphono hydrogen phosphate

>  <PUBCHEM_IUPAC_INCHI>  (1) 
InChI=1S/C12H19N4O10P3S/c1-8-11(30-7-16(8)6-10-5-14-9(2)15-12(10)13)3-4-24-28(20,21)26-29(22,23)25-27(17,18)19/h5,7H,3-4,6H2,1-2H3,(H5-,13,14,15,17,18,19,20,21,22,23)/p+1

>  <PUBCHEM_IUPAC_INCHIKEY>  (1) 
IWLROWZYZPNOFC-UHFFFAOYSA-O

>  <PUBCHEM_XLOGP3_AA>  (1) 
-2.3

>  <PUBCHEM_EXACT_MASS>  (1) 
505.0113

>  <PUBCHEM_MOLECULAR_FORMULA>  (1) 
C12H20N4O10P3S+

>  <PUBCHEM_MOLECULAR_WEIGHT>  (1) 
505.3

>  <PUBCHEM_OPENEYE_CAN_SMILES>  (1) 
CC1=C(SC=[N+]1CC2=CN=C(N=C2N)C)CCOP(=O)(O)OP(=O)(O)OP(=O)(O)O

>  <PUBCHEM_OPENEYE_ISO_SMILES>  (1) 
CC1=C(SC=[N+]1CC2=CN=C(N=C2N)C)CCOP(=O)(O)OP(=O)(O)OP(=O)(O)O

>  <PUBCHEM_CACTVS_TPSA>  (1) 
244

>  <PUBCHEM_MONOISOTOPIC_WEIGHT>  (1) 
505.0113

>  <PUBCHEM_TOTAL_CHARGE>  (1) 
1

>  <PUBCHEM_HEAVY_ATOM_COUNT>  (1) 
30

>  <PUBCHEM_ATOM_DEF_STEREO_COUNT>  (1) 
0

>  <PUBCHEM_ATOM_UDEF_STEREO_COUNT>  (1) 
0

>  <PUBCHEM_BOND_DEF_STEREO_COUNT>  (1) 
0

>  <PUBCHEM_BOND_UDEF_STEREO_COUNT>  (1) 
0

>  <PUBCHEM_ISOTOPIC_ATOM_COUNT>  (1) 
0

>  <PUBCHEM_COMPONENT_COUNT>  (1) 
1

>  <PUBCHEM_CACTVS_TAUTO_COUNT>  (1) 
-1

>  <PUBCHEM_COORDINATE_TYPE>  (1) 
1
5
255

>  <PUBCHEM_BONDANNOTATIONS>  (1) 
1  20  8
1  23  8
15  19  8
15  23  8
16  27  8
16  29  8
17  28  8
17  29  8
19  20  8
26  27  8
26  28  8

$$$$
