516
     RDKit          2D

 18 17  0  0  1  0  0  0  0  0999 V2000
    1.8528   -1.0403    0.0000 P   0  0  0  0  0  0  0  0  0  0  0  0
    4.0368    0.3669    0.0000 P   0  0  0  0  0  0  0  0  0  0  0  0
   -1.5076    2.1477    0.0000 O   0  0  0  0  0  0  0  0  0  0  0  0
    0.3545   -1.1134    0.0000 O   0  0  0  0  0  0  0  0  0  0  0  0
    3.3510   -0.9671    0.0000 O   0  0  0  0  0  0  0  0  0  0  0  0
   -5.2173   -1.7878    0.0000 O   0  0  0  0  0  0  0  0  0  0  0  0
   -2.6223   -1.6611    0.0000 O   0  0  0  0  0  0  0  0  0  0  0  0
    1.9259   -2.5385    0.0000 O   0  0  0  0  0  0  0  0  0  0  0  0
    1.7796    0.4579    0.0000 O   0  0  0  0  0  0  0  0  0  0  0  0
    2.7027    1.0527    0.0000 O   0  0  0  0  0  0  0  0  0  0  0  0
    4.7225    1.7010    0.0000 O   0  0  0  0  0  0  0  0  0  0  0  0
    5.3708   -0.3189    0.0000 O   0  0  0  0  0  0  0  0  0  0  0  0
   -2.7686    1.3353    0.0000 C   0  0  0  0  0  0  0  0  0  0  0  0
   -1.9561    0.0744    0.0000 C   0  0  0  0  0  0  0  0  0  0  0  0
   -4.0295    0.5229    0.0000 C   0  0  0  0  0  0  0  0  0  0  0  0
   -3.5810    2.5962    0.0000 C   0  0  0  0  0  0  0  0  0  0  0  0
   -0.4579    0.1475    0.0000 C   0  0  0  0  0  0  0  0  0  0  0  0
   -3.9563   -0.9754    0.0000 C   0  0  0  0  0  0  0  0  0  0  0  0
  1  4  1  0
  1  5  1  0
  1  8  1  0
  1  9  2  0
  2  5  1  0
  2 10  1  0
  2 11  1  0
  2 12  2  0
  3 13  1  0
  4 17  1  0
  6 18  1  0
  7 18  2  0
 13 14  1  0
 13 15  1  0
 13 16  1  0
 14 17  1  0
 15 18  1  0
M  END
>  <PUBCHEM_COMPOUND_CID>  (1) 
516

>  <PUBCHEM_COMPOUND_CANONICALIZED>  (1) 
1

>  <PUBCHEM_CACTVS_COMPLEXITY>  (1) 
388

>  <PUBCHEM_CACTVS_HBOND_ACCEPTOR>  (1) 
10

>  <PUBCHEM_CACTVS_HBOND_DONOR>  (1) 
5

>  <PUBCHEM_CACTVS_ROTATABLE_BOND>  (1) 
8

>  <PUBCHEM_CACTVS_SUBSKEYS>  (1) 
AAADccBgPAMAAAAAAAAAAAAAAAAAAAAAAAAAAAAAAAAAAAAAAAAAGgAACCAADESggAICCAAAAxAIQACQCIAAAAAAAAAAAAEAAAAAABYAAAAAQAAFIAAAAACIJAAKAAAAAAAAAAAAAAAAAAAAAAAAAAAAAA==

>  <PUBCHEM_IUPAC_OPENEYE_NAME>  (1) 
3-hydroxy-5-[hydroxy(phosphonooxy)phosphoryl]oxy-3-methyl-pentanoic acid

>  <PUBCHEM_IUPAC_CAS_NAME>  (1) 
3-hydroxy-5-[hydroxy(phosphonooxy)phosphoryl]oxy-3-methylpentanoic acid

>  <PUBCHEM_IUPAC_NAME_MARKUP>  (1) 
3-hydroxy-5-[hydroxy(phosphonooxy)phosphoryl]oxy-3-methylpentanoic acid

>  <PUBCHEM_IUPAC_NAME>  (1) 
3-hydroxy-5-[hydroxy(phosphonooxy)phosphoryl]oxy-3-methylpentanoic acid

>  <PUBCHEM_IUPAC_SYSTEMATIC_NAME>  (1) 
3-methyl-3-oxidanyl-5-[oxidanyl(phosphonooxy)phosphoryl]oxy-pentanoic acid

>  <PUBCHEM_IUPAC_TRADITIONAL_NAME>  (1) 
3-hydroxy-5-[hydroxy(phosphonooxy)phosphoryl]oxy-3-methyl-valeric acid

>  <PUBCHEM_IUPAC_INCHI>  (1) 
InChI=1S/C6H14O10P2/c1-6(9,4-5(7)8)2-3-15-18(13,14)16-17(10,11)12/h9H,2-4H2,1H3,(H,7,8)(H,13,14)(H2,10,11,12)

>  <PUBCHEM_IUPAC_INCHIKEY>  (1) 
SIGQQUBJQXSAMW-UHFFFAOYSA-N

>  <PUBCHEM_XLOGP3_AA>  (1) 
-3.2

>  <PUBCHEM_EXACT_MASS>  (1) 
308.006221

>  <PUBCHEM_MOLECULAR_FORMULA>  (1) 
C6H14O10P2

>  <PUBCHEM_MOLECULAR_WEIGHT>  (1) 
308.12

>  <PUBCHEM_OPENEYE_CAN_SMILES>  (1) 
CC(CCOP(=O)(O)OP(=O)(O)O)(CC(=O)O)O

>  <PUBCHEM_OPENEYE_ISO_SMILES>  (1) 
CC(CCOP(=O)(O)OP(=O)(O)O)(CC(=O)O)O

>  <PUBCHEM_CACTVS_TPSA>  (1) 
171

>  <PUBCHEM_MONOISOTOPIC_WEIGHT>  (1) 
308.006221

>  <PUBCHEM_TOTAL_CHARGE>  (1) 
0

>  <PUBCHEM_HEAVY_ATOM_COUNT>  (1) 
18

>  <PUBCHEM_ATOM_DEF_STEREO_COUNT>  (1) 
0

>  <PUBCHEM_ATOM_UDEF_STEREO_COUNT>  (1) 
1

>  <PUBCHEM_BOND_DEF_STEREO_COUNT>  (1) 
0

>  <PUBCHEM_BOND_UDEF_STEREO_COUNT>  (1) 
0

>  <PUBCHEM_ISOTOPIC_ATOM_COUNT>  (1) 
0

>  <PUBCHEM_COMPONENT_COUNT>  (1) 
1

>  <PUBCHEM_CACTVS_TAUTO_COUNT>  (1) 
-1

>  <PUBCHEM_COORDINATE_TYPE>  (1) 
1
5
255

>  <PUBCHEM_BONDANNOTATIONS>  (1) 
13  3  3

$$$$
