518
     RDKit          2D

 64 69  0  0  1  0  0  0  0  0999 V2000
   -1.9242    3.8963    0.0000 O   0  0  0  0  0  0  0  0  0  0  0  0
   -3.0737    4.4008    0.0000 O   0  0  0  0  0  0  0  0  0  0  0  0
   -3.5125    6.0462    0.0000 O   0  0  0  0  0  0  0  0  0  0  0  0
    6.7211    6.1771    0.0000 O   0  0  0  0  0  0  0  0  0  0  0  0
    4.8695    7.9995    0.0000 O   0  0  0  0  0  0  0  0  0  0  0  0
    7.5054    2.8218    0.0000 O   0  0  0  0  0  0  0  0  0  0  0  0
    7.9322    0.2590    0.0000 O   0  0  0  0  0  0  0  0  0  0  0  0
   -6.6346    4.8020    0.0000 O   0  0  0  0  0  0  0  0  0  0  0  0
   -4.3179    4.2654    0.0000 O   0  0  0  0  0  0  0  0  0  0  0  0
    6.1347   -6.7254    0.0000 O   0  0  0  0  0  0  0  0  0  0  0  0
    7.9572   -4.8737    0.0000 O   0  0  0  0  0  0  0  0  0  0  0  0
  -10.2871   -0.0070    0.0000 O   0  0  0  0  0  0  0  0  0  0  0  0
   -9.0893   -2.3124    0.0000 O   0  0  0  0  0  0  0  0  0  0  0  0
    3.1151   -7.7825    0.0000 O   0  0  0  0  0  0  0  0  0  0  0  0
    3.2305   -5.1869    0.0000 O   0  0  0  0  0  0  0  0  0  0  0  0
   -6.2582   -6.2155    0.0000 O   0  0  0  0  0  0  0  0  0  0  0  0
   -4.4065   -8.0380    0.0000 O   0  0  0  0  0  0  0  0  0  0  0  0
    0.6282    2.6212    0.0000 N   0  0  0  0  0  0  0  0  0  0  0  0
   -3.8250    0.5903    0.0000 N   0  0  0  0  0  0  0  0  0  0  0  0
    3.7784   -0.5522    0.0000 N   0  0  0  0  0  0  0  0  0  0  0  0
   -0.5945   -3.7826    0.0000 N   0  0  0  0  0  0  0  0  0  0  0  0
    0.2295    5.0153    0.0000 C   0  0  0  0  0  0  0  0  0  0  0  0
   -0.4408    3.6734    0.0000 C   0  0  0  0  0  0  0  0  0  0  0  0
    1.7129    4.7924    0.0000 C   0  0  0  0  0  0  0  0  0  0  0  0
   -2.3076    3.1112    0.0000 C   0  0  0  0  0  0  0  0  0  0  0  0
   -0.8395    6.0675    0.0000 C   0  0  0  0  0  0  0  0  0  0  0  0
    1.9593    3.3128    0.0000 C   0  0  0  0  0  0  0  0  0  0  0  0
    0.8999    6.3571    0.0000 C   0  0  0  0  0  0  0  0  0  0  0  0
    2.7651    5.8614    0.0000 C   0  0  0  0  0  0  0  0  0  0  0  0
   -2.1706    5.3759    0.0000 C   0  0  0  0  0  0  0  0  0  0  0  0
   -3.3170    2.0016    0.0000 C   0  0  0  0  0  0  0  0  0  0  0  0
   -3.5126    3.7198    0.0000 C   0  0  0  0  0  0  0  0  0  0  0  0
    3.0688    2.3033    0.0000 C   0  0  0  0  0  0  0  0  0  0  0  0
    4.9729   -0.2338    0.0000 C   0  0  0  0  0  0  0  0  0  0  0  0
    3.7076    0.9462    0.0000 C   0  0  0  0  0  0  0  0  0  0  0  0
    4.2170    5.4847    0.0000 C   0  0  0  0  0  0  0  0  0  0  0  0
    4.7500   -1.7171    0.0000 C   0  0  0  0  0  0  0  0  0  0  0  0
   -4.8732    1.2456    0.0000 C   0  0  0  0  0  0  0  0  0  0  0  0
    3.2704   -1.9635    0.0000 C   0  0  0  0  0  0  0  0  0  0  0  0
   -5.0961   -0.2377    0.0000 C   0  0  0  0  0  0  0  0  0  0  0  0
   -3.7542   -0.9081    0.0000 C   0  0  0  0  0  0  0  0  0  0  0  0
    5.4993    1.1708    0.0000 C   0  0  0  0  0  0  0  0  0  0  0  0
    6.4248   -0.6105    0.0000 C   0  0  0  0  0  0  0  0  0  0  0  0
    5.8191   -2.7693    0.0000 C   0  0  0  0  0  0  0  0  0  0  0  0
   -5.9423    2.2978    0.0000 C   0  0  0  0  0  0  0  0  0  0  0  0
    5.2692    6.5538    0.0000 C   0  0  0  0  0  0  0  0  0  0  0  0
   -3.1154   -2.2652    0.0000 C   0  0  0  0  0  0  0  0  0  0  0  0
   -6.4271   -0.9293    0.0000 C   0  0  0  0  0  0  0  0  0  0  0  0
    2.2610   -3.0731    0.0000 C   0  0  0  0  0  0  0  0  0  0  0  0
    5.4424   -4.2213    0.0000 C   0  0  0  0  0  0  0  0  0  0  0  0
   -2.0059   -3.2747    0.0000 C   0  0  0  0  0  0  0  0  0  0  0  0
    0.9038   -3.7119    0.0000 C   0  0  0  0  0  0  0  0  0  0  0  0
    6.9790    1.4172    0.0000 C   0  0  0  0  0  0  0  0  0  0  0  0
   -1.2499   -4.8309    0.0000 C   0  0  0  0  0  0  0  0  0  0  0  0
    0.2335   -5.0537    0.0000 C   0  0  0  0  0  0  0  0  0  0  0  0
   -7.6916   -0.1223    0.0000 C   0  0  0  0  0  0  0  0  0  0  0  0
   -5.5655    3.7498    0.0000 C   0  0  0  0  0  0  0  0  0  0  0  0
    6.5114   -5.2735    0.0000 C   0  0  0  0  0  0  0  0  0  0  0  0
   -2.3021   -5.8999    0.0000 C   0  0  0  0  0  0  0  0  0  0  0  0
    0.9250   -6.3848    0.0000 C   0  0  0  0  0  0  0  0  0  0  0  0
   -9.0227   -0.8139    0.0000 C   0  0  0  0  0  0  0  0  0  0  0  0
   -3.7540   -5.5232    0.0000 C   0  0  0  0  0  0  0  0  0  0  0  0
    2.4236   -6.4514    0.0000 C   0  0  0  0  0  0  0  0  0  0  0  0
   -4.8062   -6.5922    0.0000 C   0  0  0  0  0  0  0  0  0  0  0  0
  1 23  1  0
  1 30  1  0
  2 25  1  0
  3 30  2  0
  4 46  1  0
  5 46  2  0
  6 53  1  0
  7 53  2  0
  8 57  1  0
  9 57  2  0
 10 58  1  0
 11 58  2  0
 12 61  1  0
 13 61  2  0
 14 63  1  0
 15 63  2  0
 16 64  1  0
 17 64  2  0
 18 23  1  0
 18 27  2  0
 19 31  1  0
 19 41  1  0
 20 35  1  0
 20 39  1  0
 21 51  1  0
 21 52  1  0
 22 23  1  0
 22 24  1  0
 22 26  1  0
 22 28  1  0
 23 25  1  0
 24 27  1  0
 24 29  1  0
 25 31  1  0
 25 32  1  0
 26 30  1  0
 27 33  1  0
 29 36  1  0
 31 38  2  0
 33 35  2  3
 34 35  1  0
 34 37  1  0
 34 42  1  0
 34 43  1  0
 36 46  1  0
 37 39  1  0
 37 44  1  0
 38 40  1  0
 38 45  1  0
 39 49  2  3
 40 41  2  0
 40 48  1  0
 41 47  1  0
 42 53  1  0
 44 50  1  0
 45 57  1  0
 47 51  1  0
 48 56  1  0
 49 52  1  0
 50 58  1  0
 51 54  2  0
 52 55  2  0
 54 55  1  0
 54 59  1  0
 55 60  1  0
 56 61  1  0
 59 62  1  0
 60 63  1  0
 62 64  1  0
M  END
>  <PUBCHEM_COMPOUND_CID>  (1) 
518

>  <PUBCHEM_COMPOUND_CANONICALIZED>  (1) 
1

>  <PUBCHEM_CACTVS_COMPLEXITY>  (1) 
2070

>  <PUBCHEM_CACTVS_HBOND_ACCEPTOR>  (1) 
19

>  <PUBCHEM_CACTVS_HBOND_DONOR>  (1) 
11

>  <PUBCHEM_CACTVS_ROTATABLE_BOND>  (1) 
18

>  <PUBCHEM_CACTVS_SUBSKEYS>  (1) 
AAADcfB/vgAAAAAAAAAAAAAAAAAAAWLFiRAAAAAAAAAQAAAB4AAAHgAQCAAAD0yBngACiJLJlgCoAyTyTASCgCAhAiAAmSEwTJgLJnLA1ZGOcAhm0AHb2Ae+/fffgAAAAAAAAAAAAAAAAAAAAAAAAAAAAA==

>  <PUBCHEM_IUPAC_OPENEYE_NAME>  (1) 
3-[5,9,19-tris(2-carboxyethyl)-4,10,15-tris(carboxymethyl)-2-hydroxy-2,15,20-trimethyl-22-oxo-23-oxa-24,25,26,27-tetrazahexacyclo[16.5.1.13,6.18,11.113,16.01,20]heptacosa-3,5,8,10,12,16,18(24)-heptaen-14-yl]propanoic acid

>  <PUBCHEM_IUPAC_CAS_NAME>  (1) 
3-[5,9,19-tris(2-carboxyethyl)-4,10,15-tris(carboxymethyl)-2-hydroxy-2,15,20-trimethyl-22-oxo-23-oxa-24,25,26,27-tetrazahexacyclo[16.5.1.13,6.18,11.113,16.01,20]heptacosa-3,5,8,10,12,16,18(24)-heptaen-14-yl]propanoic acid

>  <PUBCHEM_IUPAC_NAME_MARKUP>  (1) 
3-[5,9,19-tris(2-carboxyethyl)-4,10,15-tris(carboxymethyl)-2-hydroxy-2,15,20-trimethyl-22-oxo-23-oxa-24,25,26,27-tetrazahexacyclo[16.5.1.1<SUP>3,6</SUP>.1<SUP>8,11</SUP>.1<SUP>13,16</SUP>.0<SUP>1,20</SUP>]heptacosa-3,5,8,10,12,16,18(24)-heptaen-14-yl]propanoic acid

>  <PUBCHEM_IUPAC_NAME>  (1) 
3-[5,9,19-tris(2-carboxyethyl)-4,10,15-tris(carboxymethyl)-2-hydroxy-2,15,20-trimethyl-22-oxo-23-oxa-24,25,26,27-tetrazahexacyclo[16.5.1.13,6.18,11.113,16.01,20]heptacosa-3,5,8,10,12,16,18(24)-heptaen-14-yl]propanoic acid

>  <PUBCHEM_IUPAC_SYSTEMATIC_NAME>  (1) 
3-[4,10,15-tris(2-hydroxy-2-oxoethyl)-5,9,19-tris(3-hydroxy-3-oxopropyl)-2,15,20-trimethyl-2-oxidanyl-22-oxidanylidene-23-oxa-24,25,26,27-tetrazahexacyclo[16.5.1.13,6.18,11.113,16.01,20]heptacosa-3,5,8,10,12,16,18(24)-heptaen-14-yl]propanoic acid

>  <PUBCHEM_IUPAC_TRADITIONAL_NAME>  (1) 
3-[5,9,19-tris(2-carboxyethyl)-4,10,15-tris(carboxymethyl)-2-hydroxy-22-keto-2,15,20-trimethyl-23-oxa-24,25,26,27-tetrazahexacyclo[16.5.1.13,6.18,11.113,16.01,20]heptacosa-3,5,8,10,12,16,18(24)-heptaen-14-yl]propionic acid

>  <PUBCHEM_IUPAC_INCHI>  (1) 
InChI=1S/C43H50N4O17/c1-40(17-37(60)61)23(6-10-33(52)53)28-15-27-21(12-35(56)57)19(4-8-31(48)49)25(44-27)14-26-20(5-9-32(50)51)22(13-36(58)59)39(46-26)42(3,63)43-41(2,18-38(62)64-43)24(7-11-34(54)55)29(47-43)16-30(40)45-28/h15-16,23-24,44-46,63H,4-14,17-18H2,1-3H3,(H,48,49)(H,50,51)(H,52,53)(H,54,55)(H,56,57)(H,58,59)(H,60,61)

>  <PUBCHEM_IUPAC_INCHIKEY>  (1) 
XJMAPDWWEYBIHV-UHFFFAOYSA-N

>  <PUBCHEM_XLOGP3_AA>  (1) 
-1

>  <PUBCHEM_EXACT_MASS>  (1) 
894.317096

>  <PUBCHEM_MOLECULAR_FORMULA>  (1) 
C43H50N4O17

>  <PUBCHEM_MOLECULAR_WEIGHT>  (1) 
894.9

>  <PUBCHEM_OPENEYE_CAN_SMILES>  (1) 
CC12CC(=O)OC13C(C4=C(C(=C(N4)CC5=C(C(=C(N5)C=C6C(C(C(=CC(=N3)C2CCC(=O)O)N6)(C)CC(=O)O)CCC(=O)O)CC(=O)O)CCC(=O)O)CCC(=O)O)CC(=O)O)(C)O

>  <PUBCHEM_OPENEYE_ISO_SMILES>  (1) 
CC12CC(=O)OC13C(C4=C(C(=C(N4)CC5=C(C(=C(N5)C=C6C(C(C(=CC(=N3)C2CCC(=O)O)N6)(C)CC(=O)O)CCC(=O)O)CC(=O)O)CCC(=O)O)CCC(=O)O)CC(=O)O)(C)O

>  <PUBCHEM_CACTVS_TPSA>  (1) 
364

>  <PUBCHEM_MONOISOTOPIC_WEIGHT>  (1) 
894.317096

>  <PUBCHEM_TOTAL_CHARGE>  (1) 
0

>  <PUBCHEM_HEAVY_ATOM_COUNT>  (1) 
64

>  <PUBCHEM_ATOM_DEF_STEREO_COUNT>  (1) 
0

>  <PUBCHEM_ATOM_UDEF_STEREO_COUNT>  (1) 
6

>  <PUBCHEM_BOND_DEF_STEREO_COUNT>  (1) 
0

>  <PUBCHEM_BOND_UDEF_STEREO_COUNT>  (1) 
2

>  <PUBCHEM_ISOTOPIC_ATOM_COUNT>  (1) 
0

>  <PUBCHEM_COMPONENT_COUNT>  (1) 
1

>  <PUBCHEM_CACTVS_TAUTO_COUNT>  (1) 
-1

>  <PUBCHEM_COORDINATE_TYPE>  (1) 
1
5
255

>  <PUBCHEM_BONDANNOTATIONS>  (1) 
19  31  8
19  41  8
21  51  8
21  52  8
23  22  3
22  28  3
24  29  3
25  32  3
31  38  8
33  35  1
34  43  3
37  44  3
38  40  8
39  49  1
40  41  8
51  54  8
52  55  8
54  55  8

$$$$
