521
     RDKit          2D

 54 56  0  0  1  0  0  0  0  0999 V2000
  -14.5290   -0.0378    0.0000 S   0  0  0  0  0  0  0  0  0  0  0  0
    3.9039   -1.7467    0.0000 P   0  0  0  0  0  0  0  0  0  0  0  0
    3.6021    3.2807    0.0000 P   0  0  0  0  0  0  0  0  0  0  0  0
    1.0044    3.2352    0.0000 P   0  0  0  0  0  0  0  0  0  0  0  0
    7.6118    0.9608    0.0000 O   0  0  0  0  0  0  0  0  0  0  0  0
    5.3384   -2.1851    0.0000 O   0  0  0  0  0  0  0  0  0  0  0  0
    8.5418   -2.8075    0.0000 O   0  0  0  0  0  0  0  0  0  0  0  0
    4.9141    2.5536    0.0000 O   0  0  0  0  0  0  0  0  0  0  0  0
    4.3423   -0.3122    0.0000 O   0  0  0  0  0  0  0  0  0  0  0  0
    2.4694   -1.3083    0.0000 O   0  0  0  0  0  0  0  0  0  0  0  0
    2.2901    4.0078    0.0000 O   0  0  0  0  0  0  0  0  0  0  0  0
   -0.2813    2.4625    0.0000 O   0  0  0  0  0  0  0  0  0  0  0  0
    3.4654   -3.1812    0.0000 O   0  0  0  0  0  0  0  0  0  0  0  0
    4.3292    4.5927    0.0000 O   0  0  0  0  0  0  0  0  0  0  0  0
   -2.8000   -2.0824    0.0000 O   0  0  0  0  0  0  0  0  0  0  0  0
    2.8750    1.9687    0.0000 O   0  0  0  0  0  0  0  0  0  0  0  0
    1.7771    1.9495    0.0000 O   0  0  0  0  0  0  0  0  0  0  0  0
    0.2317    4.5208    0.0000 O   0  0  0  0  0  0  0  0  0  0  0  0
   -4.1646    1.6442    0.0000 O   0  0  0  0  0  0  0  0  0  0  0  0
   -9.3600    1.5531    0.0000 O   0  0  0  0  0  0  0  0  0  0  0  0
  -18.3861   -2.3558    0.0000 O   0  0  0  0  0  0  0  0  0  0  0  0
  -15.7884   -2.3102    0.0000 O   0  0  0  0  0  0  0  0  0  0  0  0
   10.1237    0.0468    0.0000 N   0  0  0  0  0  0  0  0  0  0  0  0
   12.3232    1.0727    0.0000 N   0  0  0  0  0  0  0  0  0  0  0  0
   11.0162   -2.5445    0.0000 N   0  0  0  0  0  0  0  0  0  0  0  0
   13.6044   -2.7707    0.0000 N   0  0  0  0  0  0  0  0  0  0  0  0
   15.0944   -0.6423    0.0000 N   0  0  0  0  0  0  0  0  0  0  0  0
   -5.4240   -0.6282    0.0000 N   0  0  0  0  0  0  0  0  0  0  0  0
  -10.6194   -0.7193    0.0000 N   0  0  0  0  0  0  0  0  0  0  0  0
    6.4353   -1.1620    0.0000 C   0  0  0  0  0  0  0  0  0  0  0  0
    7.9078   -1.4481    0.0000 C   0  0  0  0  0  0  0  0  0  0  0  0
    6.2524    0.3268    0.0000 C   0  0  0  0  0  0  0  0  0  0  0  0
    8.6349   -0.1361    0.0000 C   0  0  0  0  0  0  0  0  0  0  0  0
    4.9404    1.0539    0.0000 C   0  0  0  0  0  0  0  0  0  0  0  0
   11.1468   -1.0501    0.0000 C   0  0  0  0  0  0  0  0  0  0  0  0
   10.8508    1.3588    0.0000 C   0  0  0  0  0  0  0  0  0  0  0  0
   12.5062   -0.4161    0.0000 C   0  0  0  0  0  0  0  0  0  0  0  0
   -1.5407    0.1900    0.0000 C   0  0  0  0  0  0  0  0  0  0  0  0
   -2.8263   -0.5826    0.0000 C   0  0  0  0  0  0  0  0  0  0  0  0
   -0.2550    0.9627    0.0000 C   0  0  0  0  0  0  0  0  0  0  0  0
   13.7350   -1.2764    0.0000 C   0  0  0  0  0  0  0  0  0  0  0  0
   -2.3133    1.4757    0.0000 C   0  0  0  0  0  0  0  0  0  0  0  0
   -0.7680   -1.0956    0.0000 C   0  0  0  0  0  0  0  0  0  0  0  0
   12.2450   -3.4047    0.0000 C   0  0  0  0  0  0  0  0  0  0  0  0
   -4.1383    0.1445    0.0000 C   0  0  0  0  0  0  0  0  0  0  0  0
   -6.7360    0.0989    0.0000 C   0  0  0  0  0  0  0  0  0  0  0  0
   -8.0217   -0.6738    0.0000 C   0  0  0  0  0  0  0  0  0  0  0  0
   -9.3337    0.0533    0.0000 C   0  0  0  0  0  0  0  0  0  0  0  0
  -11.9314    0.0078    0.0000 C   0  0  0  0  0  0  0  0  0  0  0  0
  -13.2171   -0.7649    0.0000 C   0  0  0  0  0  0  0  0  0  0  0  0
  -17.1267   -0.0834    0.0000 C   0  0  0  0  0  0  0  0  0  0  0  0
  -15.8147   -0.8105    0.0000 C   0  0  0  0  0  0  0  0  0  0  0  0
  -18.4124   -0.8560    0.0000 C   0  0  0  0  0  0  0  0  0  0  0  0
  -19.7244   -0.1289    0.0000 C   0  0  0  0  0  0  0  0  0  0  0  0
  1 50  1  0
  1 52  1  0
  2  6  1  0
  2  9  1  0
  2 10  1  0
  2 13  2  0
  3  8  1  0
  3 11  1  0
  3 14  1  0
  3 16  2  0
  4 11  1  0
  4 12  1  0
  4 17  1  0
  4 18  2  0
  5 32  1  0
  5 33  1  0
  6 30  1  0
  7 31  1  0
  8 34  1  0
 12 40  1  0
 15 39  1  0
 19 45  2  0
 20 48  2  0
 21 53  1  0
 22 52  2  0
 23 33  1  0
 23 35  1  0
 23 36  1  0
 24 36  2  0
 24 37  1  0
 25 35  1  0
 25 44  2  0
 26 41  2  0
 26 44  1  0
 27 41  1  0
 28 45  1  0
 28 46  1  0
 29 48  1  0
 29 49  1  0
 30 31  1  0
 30 32  1  0
 31 33  1  0
 32 34  1  0
 35 37  2  0
 37 41  1  0
 38 39  1  0
 38 40  1  0
 38 42  1  0
 38 43  1  0
 39 45  1  0
 46 47  1  0
 47 48  1  0
 49 50  1  0
 51 52  1  0
 51 53  1  0
 53 54  1  0
M  END
>  <PUBCHEM_COMPOUND_CID>  (1) 
521

>  <PUBCHEM_COMPOUND_CANONICALIZED>  (1) 
1

>  <PUBCHEM_CACTVS_COMPLEXITY>  (1) 
1450

>  <PUBCHEM_CACTVS_HBOND_ACCEPTOR>  (1) 
23

>  <PUBCHEM_CACTVS_HBOND_DONOR>  (1) 
10

>  <PUBCHEM_CACTVS_ROTATABLE_BOND>  (1) 
22

>  <PUBCHEM_CACTVS_SUBSKEYS>  (1) 
AAADcfB7vgNAAAAAAAAAAAAAAAAAAWJAAAAsAAAAAAAAAFgB+AAAHgQQCCAADhzl1waH8L/MFxioQQdxdIKAgC0RELABUKFoVBCDWB5gyEAeRAgPNgLzACDyMAIJAAAAAAAAAAAAAAAAAAAAAAAAAAAAAA==

>  <PUBCHEM_IUPAC_OPENEYE_NAME>  (1) 
S-[2-[3-[[4-[[[5-(6-aminopurin-9-yl)-4-hydroxy-3-phosphonooxy-tetrahydrofuran-2-yl]methoxy-hydroxy-phosphoryl]oxy-hydroxy-phosphoryl]oxy-2-hydroxy-3,3-dimethyl-butanoyl]amino]propanoylamino]ethyl] 3-hydroxybutanethioate

>  <PUBCHEM_IUPAC_CAS_NAME>  (1) 
3-hydroxybutanethioic acid S-[2-[[3-[[4-[[[5-(6-aminopurin-9-yl)-4-hydroxy-3-phosphonooxy-2-oxolanyl]methoxy-hydroxyphosphoryl]oxy-hydroxyphosphoryl]oxy-2-hydroxy-3,3-dimethyl-1-oxobutyl]amino]-1-oxopropyl]amino]ethyl] ester

>  <PUBCHEM_IUPAC_NAME_MARKUP>  (1) 
<I>S</I>-[2-[3-[[4-[[[5-(6-aminopurin-9-yl)-4-hydroxy-3-phosphonooxyoxolan-2-yl]methoxy-hydroxyphosphoryl]oxy-hydroxyphosphoryl]oxy-2-hydroxy-3,3-dimethylbutanoyl]amino]propanoylamino]ethyl] 3-hydroxybutanethioate

>  <PUBCHEM_IUPAC_NAME>  (1) 
S-[2-[3-[[4-[[[5-(6-aminopurin-9-yl)-4-hydroxy-3-phosphonooxyoxolan-2-yl]methoxy-hydroxyphosphoryl]oxy-hydroxyphosphoryl]oxy-2-hydroxy-3,3-dimethylbutanoyl]amino]propanoylamino]ethyl] 3-hydroxybutanethioate

>  <PUBCHEM_IUPAC_SYSTEMATIC_NAME>  (1) 
S-[2-[3-[[4-[[[5-(6-aminopurin-9-yl)-4-oxidanyl-3-phosphonooxy-oxolan-2-yl]methoxy-oxidanyl-phosphoryl]oxy-oxidanyl-phosphoryl]oxy-3,3-dimethyl-2-oxidanyl-butanoyl]amino]propanoylamino]ethyl] 3-oxidanylbutanethioate

>  <PUBCHEM_IUPAC_TRADITIONAL_NAME>  (1) 
3-hydroxybutanethioic acid S-[2-[3-[[4-[[(5-adenin-9-yl-4-hydroxy-3-phosphonooxy-tetrahydrofuran-2-yl)methoxy-hydroxy-phosphoryl]oxy-hydroxy-phosphoryl]oxy-2-hydroxy-3,3-dimethyl-butanoyl]amino]propanoylamino]ethyl] ester

>  <PUBCHEM_IUPAC_INCHI>  (1) 
InChI=1S/C25H42N7O18P3S/c1-13(33)8-16(35)54-7-6-27-15(34)4-5-28-23(38)20(37)25(2,3)10-47-53(44,45)50-52(42,43)46-9-14-19(49-51(39,40)41)18(36)24(48-14)32-12-31-17-21(26)29-11-30-22(17)32/h11-14,18-20,24,33,36-37H,4-10H2,1-3H3,(H,27,34)(H,28,38)(H,42,43)(H,44,45)(H2,26,29,30)(H2,39,40,41)

>  <PUBCHEM_IUPAC_INCHIKEY>  (1) 
QHHKKMYHDBRONY-UHFFFAOYSA-N

>  <PUBCHEM_XLOGP3>  (1) 
-5.9

>  <PUBCHEM_EXACT_MASS>  (1) 
853.15199

>  <PUBCHEM_MOLECULAR_FORMULA>  (1) 
C25H42N7O18P3S

>  <PUBCHEM_MOLECULAR_WEIGHT>  (1) 
853.6

>  <PUBCHEM_OPENEYE_CAN_SMILES>  (1) 
CC(CC(=O)SCCNC(=O)CCNC(=O)C(C(C)(C)COP(=O)(O)OP(=O)(O)OCC1C(C(C(O1)N2C=NC3=C(N=CN=C32)N)O)OP(=O)(O)O)O)O

>  <PUBCHEM_OPENEYE_ISO_SMILES>  (1) 
CC(CC(=O)SCCNC(=O)CCNC(=O)C(C(C)(C)COP(=O)(O)OP(=O)(O)OCC1C(C(C(O1)N2C=NC3=C(N=CN=C32)N)O)OP(=O)(O)O)O)O

>  <PUBCHEM_CACTVS_TPSA>  (1) 
409

>  <PUBCHEM_MONOISOTOPIC_WEIGHT>  (1) 
853.15199

>  <PUBCHEM_TOTAL_CHARGE>  (1) 
0

>  <PUBCHEM_HEAVY_ATOM_COUNT>  (1) 
54

>  <PUBCHEM_ATOM_DEF_STEREO_COUNT>  (1) 
0

>  <PUBCHEM_ATOM_UDEF_STEREO_COUNT>  (1) 
6

>  <PUBCHEM_BOND_DEF_STEREO_COUNT>  (1) 
0

>  <PUBCHEM_BOND_UDEF_STEREO_COUNT>  (1) 
0

>  <PUBCHEM_ISOTOPIC_ATOM_COUNT>  (1) 
0

>  <PUBCHEM_COMPONENT_COUNT>  (1) 
1

>  <PUBCHEM_CACTVS_TAUTO_COUNT>  (1) 
-1

>  <PUBCHEM_COORDINATE_TYPE>  (1) 
1
5
255

>  <PUBCHEM_BONDANNOTATIONS>  (1) 
39  15  3
53  21  3
33  23  3
23  35  8
23  36  8
24  36  8
24  37  8
25  35  8
25  44  8
26  41  8
26  44  8
32  34  3
35  37  8
37  41  8
30  6  3
31  7  3

$$$$
