522
     RDKit          2D

 65 69  0  0  1  0  0  0  0  0999 V2000
    2.2616   -0.2485    0.0000 O   0  0  0  0  0  0  0  0  0  0  0  0
    6.4034    3.6074    0.0000 O   0  0  0  0  0  0  0  0  0  0  0  0
    4.7004    5.5694    0.0000 O   0  0  0  0  0  0  0  0  0  0  0  0
    3.3491    9.0841    0.0000 O   0  0  0  0  0  0  0  0  0  0  0  0
    8.2464   -0.5025    0.0000 O   0  0  0  0  0  0  0  0  0  0  0  0
    0.7607    8.8596    0.0000 O   0  0  0  0  0  0  0  0  0  0  0  0
    6.6813   -2.5762    0.0000 O   0  0  0  0  0  0  0  0  0  0  0  0
    8.0958   -5.3605    0.0000 O   0  0  0  0  0  0  0  0  0  0  0  0
    8.4143   -2.7820    0.0000 O   0  0  0  0  0  0  0  0  0  0  0  0
   -4.9128    6.2079    0.0000 O   0  0  0  0  0  0  0  0  0  0  0  0
   -6.6861    4.3091    0.0000 O   0  0  0  0  0  0  0  0  0  0  0  0
  -10.0402    2.5979    0.0000 O   0  0  0  0  0  0  0  0  0  0  0  0
   -6.7326   -5.4070    0.0000 O   0  0  0  0  0  0  0  0  0  0  0  0
   -9.5464    0.0471    0.0000 O   0  0  0  0  0  0  0  0  0  0  0  0
   -5.6329   -3.0532    0.0000 O   0  0  0  0  0  0  0  0  0  0  0  0
   -2.6696   -9.8746    0.0000 O   0  0  0  0  0  0  0  0  0  0  0  0
   -0.1845   -9.1168    0.0000 O   0  0  0  0  0  0  0  0  0  0  0  0
    0.6019    2.0120    0.0000 N   0  0  0  0  0  0  0  0  0  0  0  0
    3.0888   -1.0010    0.0000 N   0  0  0  0  0  0  0  0  0  0  0  0
   -3.6937    1.3400    0.0000 N   0  0  0  0  0  0  0  0  0  0  0  0
   -1.6024   -3.5968    0.0000 N   0  0  0  0  0  0  0  0  0  0  0  0
    2.4348    3.6029    0.0000 C   0  0  0  0  0  0  0  0  0  0  0  0
    2.0963    2.1416    0.0000 C   0  0  0  0  0  0  0  0  0  0  0  0
    1.1496    4.3764    0.0000 C   0  0  0  0  0  0  0  0  0  0  0  0
    0.0168    3.3932    0.0000 C   0  0  0  0  0  0  0  0  0  0  0  0
    3.1161    0.4988    0.0000 C   0  0  0  0  0  0  0  0  0  0  0  0
    3.8527    3.1135    0.0000 C   0  0  0  0  0  0  0  0  0  0  0  0
    3.0697    4.9619    0.0000 C   0  0  0  0  0  0  0  0  0  0  0  0
    1.0200    5.8708    0.0000 C   0  0  0  0  0  0  0  0  0  0  0  0
    3.9482   -2.2303    0.0000 C   0  0  0  0  0  0  0  0  0  0  0  0
    4.2867   -0.7690    0.0000 C   0  0  0  0  0  0  0  0  0  0  0  0
    3.0795    1.0088    0.0000 C   0  0  0  0  0  0  0  0  0  0  0  0
    2.4538   -2.3600    0.0000 C   0  0  0  0  0  0  0  0  0  0  0  0
   -1.4776    3.2636    0.0000 C   0  0  0  0  0  0  0  0  0  0  0  0
    2.2493    6.7303    0.0000 C   0  0  0  0  0  0  0  0  0  0  0  0
    5.4369   -2.4142    0.0000 C   0  0  0  0  0  0  0  0  0  0  0  0
    5.6679   -0.1840    0.0000 C   0  0  0  0  0  0  0  0  0  0  0  0
    4.9855    4.0968    0.0000 C   0  0  0  0  0  0  0  0  0  0  0  0
    3.9209   -3.7301    0.0000 C   0  0  0  0  0  0  0  0  0  0  0  0
   -2.7901    2.5373    0.0000 C   0  0  0  0  0  0  0  0  0  0  0  0
    4.5522    1.2940    0.0000 C   0  0  0  0  0  0  0  0  0  0  0  0
    1.3211   -3.3432    0.0000 C   0  0  0  0  0  0  0  0  0  0  0  0
   -4.4935    2.2615    0.0000 C   0  0  0  0  0  0  0  0  0  0  0  0
    6.0220   -3.7954    0.0000 C   0  0  0  0  0  0  0  0  0  0  0  0
   -5.1284    0.9025    0.0000 C   0  0  0  0  0  0  0  0  0  0  0  0
   -0.1137   -3.7807    0.0000 C   0  0  0  0  0  0  0  0  0  0  0  0
   -4.0322   -0.1213    0.0000 C   0  0  0  0  0  0  0  0  0  0  0  0
    2.1197    8.2247    0.0000 C   0  0  0  0  0  0  0  0  0  0  0  0
   -4.1550    3.7228    0.0000 C   0  0  0  0  0  0  0  0  0  0  0  0
   -5.9114    2.7509    0.0000 C   0  0  0  0  0  0  0  0  0  0  0  0
    6.8652   -1.0876    0.0000 C   0  0  0  0  0  0  0  0  0  0  0  0
   -3.7470   -1.5939    0.0000 C   0  0  0  0  0  0  0  0  0  0  0  0
   -1.4970   -4.8125    0.0000 C   0  0  0  0  0  0  0  0  0  0  0  0
   -2.8876   -2.8233    0.0000 C   0  0  0  0  0  0  0  0  0  0  0  0
   -6.6011    0.6174    0.0000 C   0  0  0  0  0  0  0  0  0  0  0  0
   -2.9149   -4.3231    0.0000 C   0  0  0  0  0  0  0  0  0  0  0  0
    7.5107   -3.9793    0.0000 C   0  0  0  0  0  0  0  0  0  0  0  0
   -1.0595   -6.2472    0.0000 C   0  0  0  0  0  0  0  0  0  0  0  0
   -5.2513    4.7466    0.0000 C   0  0  0  0  0  0  0  0  0  0  0  0
   -7.5843    1.7502    0.0000 C   0  0  0  0  0  0  0  0  0  0  0  0
   -4.1442   -5.1825    0.0000 C   0  0  0  0  0  0  0  0  0  0  0  0
   -2.0833   -7.3435    0.0000 C   0  0  0  0  0  0  0  0  0  0  0  0
   -9.0570    1.4651    0.0000 C   0  0  0  0  0  0  0  0  0  0  0  0
   -5.5032   -4.5476    0.0000 C   0  0  0  0  0  0  0  0  0  0  0  0
   -1.6458   -8.7783    0.0000 C   0  0  0  0  0  0  0  0  0  0  0  0
  1 32  2  0
  2 38  1  0
  3 38  2  0
  4 48  1  0
  5 51  1  0
  6 48  2  0
  7 51  2  0
  8 57  1  0
  9 57  2  0
 10 59  1  0
 11 59  2  0
 12 63  1  0
 13 64  1  0
 14 63  2  0
 15 64  2  0
 16 65  1  0
 17 65  2  0
 18 23  1  0
 18 25  1  0
 19 26  1  0
 19 33  2  0
 20 40  2  0
 20 47  1  0
 21 46  1  0
 21 54  1  0
 22 23  1  0
 22 24  1  0
 22 27  1  0
 22 28  1  0
 23 26  1  0
 23 32  1  0
 24 25  1  0
 24 29  1  0
 25 34  2  3
 26 31  2  0
 27 38  1  0
 29 35  1  0
 30 31  1  0
 30 33  1  0
 30 36  1  0
 30 39  1  0
 31 37  1  0
 32 41  1  0
 33 42  1  0
 34 40  1  0
 35 48  1  0
 36 44  1  0
 37 51  1  0
 40 43  1  0
 42 46  1  0
 43 45  1  0
 43 49  1  0
 43 50  1  0
 44 57  1  0
 45 47  2  0
 45 55  1  0
 46 53  2  0
 47 52  1  0
 49 59  1  0
 52 54  1  0
 53 56  1  0
 53 58  1  0
 54 56  2  0
 55 60  1  0
 56 61  1  0
 58 62  1  0
 60 63  1  0
 61 64  1  0
 62 65  1  0
M  END
>  <PUBCHEM_COMPOUND_CID>  (1) 
522

>  <PUBCHEM_COMPOUND_CANONICALIZED>  (1) 
1

>  <PUBCHEM_CACTVS_COMPLEXITY>  (1) 
2260

>  <PUBCHEM_CACTVS_HBOND_ACCEPTOR>  (1) 
20

>  <PUBCHEM_CACTVS_HBOND_DONOR>  (1) 
10

>  <PUBCHEM_CACTVS_ROTATABLE_BOND>  (1) 
21

>  <PUBCHEM_CACTVS_SUBSKEYS>  (1) 
AAADcfB/vgAAAAAAAAAAAAAAAAAAAWLECAAAAAAAAAAAAAABgAAAHgAQCAAAD4yBngACiJLJkgCoA6TyTACCgCAhAiAAmSGwRJgIYHrA1bGUQAhk0AHIyAe83/O/gAAAAAAAAAAAAAAAAAAAAAAAAAAAAA==

>  <PUBCHEM_IUPAC_OPENEYE_NAME>  (1) 
3-[1-acetyl-8,13,17-tris(2-carboxyethyl)-2,7,12,18-tetrakis(carboxymethyl)-2,7,17-trimethyl-10,15,21,23-tetrahydro-3H-corrin-3-yl]propanoic acid

>  <PUBCHEM_IUPAC_CAS_NAME>  (1) 
3-[1-acetyl-8,13,17-tris(2-carboxyethyl)-2,7,12,18-tetrakis(carboxymethyl)-2,7,17-trimethyl-10,15,21,23-tetrahydro-3H-corrin-3-yl]propanoic acid

>  <PUBCHEM_IUPAC_NAME_MARKUP>  (1) 
3-[1-acetyl-8,13,17-tris(2-carboxyethyl)-2,7,12,18-tetrakis(carboxymethyl)-2,7,17-trimethyl-10,15,21,23-tetrahydro-3<I>H</I>-corrin-3-yl]propanoic acid

>  <PUBCHEM_IUPAC_NAME>  (1) 
3-[1-acetyl-8,13,17-tris(2-carboxyethyl)-2,7,12,18-tetrakis(carboxymethyl)-2,7,17-trimethyl-10,15,21,23-tetrahydro-3H-corrin-3-yl]propanoic acid

>  <PUBCHEM_IUPAC_SYSTEMATIC_NAME>  (1) 
3-[1-ethanoyl-2,7,12,18-tetrakis(2-hydroxy-2-oxoethyl)-8,13,17-tris(3-hydroxy-3-oxopropyl)-2,7,17-trimethyl-10,15,21,23-tetrahydro-3H-corrin-3-yl]propanoic acid

>  <PUBCHEM_IUPAC_TRADITIONAL_NAME>  (1) 
3-[1-acetyl-8,13,17-tris(2-carboxyethyl)-2,7,12,18-tetrakis(carboxymethyl)-2,7,17-trimethyl-10,15,21,23-tetrahydro-3H-corrin-3-yl]propionic acid

>  <PUBCHEM_IUPAC_INCHI>  (1) 
InChI=1S/C44H52N4O17/c1-20(49)44-40-25(14-37(60)61)41(2,12-11-35(56)57)30(47-40)16-27-21(5-8-32(50)51)22(13-36(58)59)26(45-27)15-28-23(6-9-33(52)53)42(3,18-38(62)63)31(46-28)17-29(48-44)24(7-10-34(54)55)43(44,4)19-39(64)65/h17,24,45,48H,5-16,18-19H2,1-4H3,(H,50,51)(H,52,53)(H,54,55)(H,56,57)(H,58,59)(H,60,61)(H,62,63)(H,64,65)

>  <PUBCHEM_IUPAC_INCHIKEY>  (1) 
IOBDBIPWYQGVMM-UHFFFAOYSA-N

>  <PUBCHEM_XLOGP3_AA>  (1) 
-2

>  <PUBCHEM_EXACT_MASS>  (1) 
908.332746

>  <PUBCHEM_MOLECULAR_FORMULA>  (1) 
C44H52N4O17

>  <PUBCHEM_MOLECULAR_WEIGHT>  (1) 
908.9

>  <PUBCHEM_OPENEYE_CAN_SMILES>  (1) 
CC(=O)C12C3=C(C(C(=N3)CC4=C(C(=C(N4)CC5=C(C(C(=N5)C=C(N1)C(C2(C)CC(=O)O)CCC(=O)O)(C)CC(=O)O)CCC(=O)O)CC(=O)O)CCC(=O)O)(C)CCC(=O)O)CC(=O)O

>  <PUBCHEM_OPENEYE_ISO_SMILES>  (1) 
CC(=O)C12C3=C(C(C(=N3)CC4=C(C(=C(N4)CC5=C(C(C(=N5)C=C(N1)C(C2(C)CC(=O)O)CCC(=O)O)(C)CC(=O)O)CCC(=O)O)CC(=O)O)CCC(=O)O)(C)CCC(=O)O)CC(=O)O

>  <PUBCHEM_CACTVS_TPSA>  (1) 
368

>  <PUBCHEM_MONOISOTOPIC_WEIGHT>  (1) 
908.332746

>  <PUBCHEM_TOTAL_CHARGE>  (1) 
0

>  <PUBCHEM_HEAVY_ATOM_COUNT>  (1) 
65

>  <PUBCHEM_ATOM_DEF_STEREO_COUNT>  (1) 
0

>  <PUBCHEM_ATOM_UDEF_STEREO_COUNT>  (1) 
5

>  <PUBCHEM_BOND_DEF_STEREO_COUNT>  (1) 
0

>  <PUBCHEM_BOND_UDEF_STEREO_COUNT>  (1) 
1

>  <PUBCHEM_ISOTOPIC_ATOM_COUNT>  (1) 
0

>  <PUBCHEM_COMPONENT_COUNT>  (1) 
1

>  <PUBCHEM_CACTVS_TAUTO_COUNT>  (1) 
-1

>  <PUBCHEM_COORDINATE_TYPE>  (1) 
1
5
255

>  <PUBCHEM_BONDANNOTATIONS>  (1) 
21  46  8
21  54  8
22  28  3
23  32  3
24  29  3
25  34  1
30  39  3
43  50  3
46  53  8
53  56  8
54  56  8

$$$$
