526
     RDKit          2D

 66 70  0  0  1  0  0  0  0  0999 V2000
    2.0495    0.4604    0.0000 O   0  0  0  0  0  0  0  0  0  0  0  0
    4.7686    5.4232    0.0000 O   0  0  0  0  0  0  0  0  0  0  0  0
    2.5349    6.7501    0.0000 O   0  0  0  0  0  0  0  0  0  0  0  0
    0.1469    9.6615    0.0000 O   0  0  0  0  0  0  0  0  0  0  0  0
    7.8105    2.1014    0.0000 O   0  0  0  0  0  0  0  0  0  0  0  0
   -2.2395    8.6344    0.0000 O   0  0  0  0  0  0  0  0  0  0  0  0
    6.9770   -0.3593    0.0000 O   0  0  0  0  0  0  0  0  0  0  0  0
    9.1953   -2.5576    0.0000 O   0  0  0  0  0  0  0  0  0  0  0  0
    8.6868   -0.0097    0.0000 O   0  0  0  0  0  0  0  0  0  0  0  0
   -6.7913    4.3332    0.0000 O   0  0  0  0  0  0  0  0  0  0  0  0
   -7.8775    1.9730    0.0000 O   0  0  0  0  0  0  0  0  0  0  0  0
   -4.3588   -7.2711    0.0000 O   0  0  0  0  0  0  0  0  0  0  0  0
   -4.0551   -4.6909    0.0000 O   0  0  0  0  0  0  0  0  0  0  0  0
  -10.5233   -0.7062    0.0000 O   0  0  0  0  0  0  0  0  0  0  0  0
   -9.2524   -2.9722    0.0000 O   0  0  0  0  0  0  0  0  0  0  0  0
    5.1445   -7.2327    0.0000 O   0  0  0  0  0  0  0  0  0  0  0  0
    3.0237   -8.7335    0.0000 O   0  0  0  0  0  0  0  0  0  0  0  0
   -0.2369    2.0843    0.0000 N   0  0  0  0  0  0  0  0  0  0  0  0
    3.0713    0.0063    0.0000 N   0  0  0  0  0  0  0  0  0  0  0  0
   -4.1032    0.0956    0.0000 N   0  0  0  0  0  0  0  0  0  0  0  0
   -0.5655   -3.9331    0.0000 N   0  0  0  0  0  0  0  0  0  0  0  0
    1.0027    4.1709    0.0000 C   0  0  0  0  0  0  0  0  0  0  0  0
    1.1409    2.6773    0.0000 C   0  0  0  0  0  0  0  0  0  0  0  0
   -0.4605    4.5010    0.0000 C   0  0  0  0  0  0  0  0  0  0  0  0
   -1.2266    3.2114    0.0000 C   0  0  0  0  0  0  0  0  0  0  0  0
    2.6256    1.4385    0.0000 C   0  0  0  0  0  0  0  0  0  0  0  0
    2.5026    4.1522    0.0000 C   0  0  0  0  0  0  0  0  0  0  0  0
    1.1781    5.6606    0.0000 C   0  0  0  0  0  0  0  0  0  0  0  0
   -1.0535    5.8788    0.0000 C   0  0  0  0  0  0  0  0  0  0  0  0
    4.2738   -0.8905    0.0000 C   0  0  0  0  0  0  0  0  0  0  0  0
    4.1356    0.6032    0.0000 C   0  0  0  0  0  0  0  0  0  0  0  0
    2.4305    1.9112    0.0000 C   0  0  0  0  0  0  0  0  0  0  0  0
    2.8960   -1.4835    0.0000 C   0  0  0  0  0  0  0  0  0  0  0  0
   -2.6044    2.6184    0.0000 C   0  0  0  0  0  0  0  0  0  0  0  0
    5.7448   -0.5969    0.0000 C   0  0  0  0  0  0  0  0  0  0  0  0
   -0.1568    7.0813    0.0000 C   0  0  0  0  0  0  0  0  0  0  0  0
    5.2627    1.5929    0.0000 C   0  0  0  0  0  0  0  0  0  0  0  0
   -3.6219    1.5163    0.0000 C   0  0  0  0  0  0  0  0  0  0  0  0
    3.2687    5.4418    0.0000 C   0  0  0  0  0  0  0  0  0  0  0  0
    4.7195   -2.3227    0.0000 C   0  0  0  0  0  0  0  0  0  0  0  0
   -5.1522    0.7188    0.0000 C   0  0  0  0  0  0  0  0  0  0  0  0
    2.1299   -2.7731    0.0000 C   0  0  0  0  0  0  0  0  0  0  0  0
    3.7388    2.6449    0.0000 C   0  0  0  0  0  0  0  0  0  0  0  0
   -5.3276   -0.7709    0.0000 C   0  0  0  0  0  0  0  0  0  0  0  0
   -2.0287   -3.6030    0.0000 C   0  0  0  0  0  0  0  0  0  0  0  0
    0.9055   -3.6396    0.0000 C   0  0  0  0  0  0  0  0  0  0  0  0
   -3.9650   -1.3980    0.0000 C   0  0  0  0  0  0  0  0  0  0  0  0
    6.7345   -1.7240    0.0000 C   0  0  0  0  0  0  0  0  0  0  0  0
   -3.2312   -2.7063    0.0000 C   0  0  0  0  0  0  0  0  0  0  0  0
   -5.2904    2.2124    0.0000 C   0  0  0  0  0  0  0  0  0  0  0  0
   -1.0757   -5.0416    0.0000 C   0  0  0  0  0  0  0  0  0  0  0  0
    0.4242   -5.0603    0.0000 C   0  0  0  0  0  0  0  0  0  0  0  0
   -6.6521    0.7375    0.0000 C   0  0  0  0  0  0  0  0  0  0  0  0
   -0.7498    8.4591    0.0000 C   0  0  0  0  0  0  0  0  0  0  0  0
    6.6834    1.1116    0.0000 C   0  0  0  0  0  0  0  0  0  0  0  0
   -6.6359   -1.5047    0.0000 C   0  0  0  0  0  0  0  0  0  0  0  0
   -2.6559   -4.9656    0.0000 C   0  0  0  0  0  0  0  0  0  0  0  0
    1.2907   -6.2847    0.0000 C   0  0  0  0  0  0  0  0  0  0  0  0
   -1.9724   -6.2440    0.0000 C   0  0  0  0  0  0  0  0  0  0  0  0
    8.2055   -1.4304    0.0000 C   0  0  0  0  0  0  0  0  0  0  0  0
   -7.9255   -0.7386    0.0000 C   0  0  0  0  0  0  0  0  0  0  0  0
   -6.6531    2.8395    0.0000 C   0  0  0  0  0  0  0  0  0  0  0  0
    2.7843   -6.1465    0.0000 C   0  0  0  0  0  0  0  0  0  0  0  0
   -3.4621   -6.0687    0.0000 C   0  0  0  0  0  0  0  0  0  0  0  0
   -9.2337   -1.4723    0.0000 C   0  0  0  0  0  0  0  0  0  0  0  0
    3.6508   -7.3709    0.0000 C   0  0  0  0  0  0  0  0  0  0  0  0
  1 32  2  0
  2 39  1  0
  3 39  2  0
  4 54  1  0
  5 55  1  0
  6 54  2  0
  7 55  2  0
  8 60  1  0
  9 60  2  0
 10 62  1  0
 11 62  2  0
 12 64  1  0
 13 64  2  0
 14 65  1  0
 15 65  2  0
 16 66  1  0
 17 66  2  0
 18 23  1  0
 18 25  1  0
 19 26  1  0
 19 33  2  0
 20 38  2  0
 20 47  1  0
 21 45  1  0
 21 46  2  0
 22 23  1  0
 22 24  1  0
 22 27  1  0
 22 28  1  0
 23 26  1  0
 23 32  1  0
 24 25  1  0
 24 29  1  0
 25 34  2  3
 26 31  2  0
 27 39  1  0
 29 36  1  0
 30 31  1  0
 30 33  1  0
 30 35  1  0
 30 40  1  0
 31 37  1  0
 32 43  1  0
 33 42  1  0
 34 38  1  0
 35 48  1  0
 36 54  1  0
 37 55  1  0
 38 41  1  0
 41 44  1  0
 41 50  1  0
 41 53  1  0
 42 46  1  0
 44 47  2  0
 44 56  1  0
 45 49  1  0
 45 51  1  0
 45 57  1  0
 46 52  1  0
 47 49  1  0
 48 60  1  0
 50 62  1  0
 51 52  2  0
 51 59  1  0
 52 58  1  0
 56 61  1  0
 58 63  1  0
 59 64  1  0
 61 65  1  0
 63 66  1  0
M  END
>  <PUBCHEM_COMPOUND_CID>  (1) 
526

>  <PUBCHEM_COMPOUND_CANONICALIZED>  (1) 
1

>  <PUBCHEM_CACTVS_COMPLEXITY>  (1) 
2460

>  <PUBCHEM_CACTVS_HBOND_ACCEPTOR>  (1) 
21

>  <PUBCHEM_CACTVS_HBOND_DONOR>  (1) 
9

>  <PUBCHEM_CACTVS_ROTATABLE_BOND>  (1) 
21

>  <PUBCHEM_CACTVS_SUBSKEYS>  (1) 
AAADcfB/vgAAAAAAAAAAAAAAAAAAAWIECAAAAAAAAAAAAAAAAAAAHgAQCAAAD4yBgAACCALAAgCoA6TyTACAAAAgAgAACAGwABgAQBoAwSAUQAAE0ACIAAO83/KvgAAAAAAAAAAAAAAAAAAAAAAAAAAAAA==

>  <PUBCHEM_IUPAC_OPENEYE_NAME>  (1) 
3-[1-acetyl-8,13,17-tris(2-carboxyethyl)-2,7,12,18-tetrakis(carboxymethyl)-2,7,11,17-tetramethyl-3,10,15,21-tetrahydrocorrin-3-yl]propanoic acid

>  <PUBCHEM_IUPAC_CAS_NAME>  (1) 
3-[1-acetyl-8,13,17-tris(2-carboxyethyl)-2,7,12,18-tetrakis(carboxymethyl)-2,7,11,17-tetramethyl-3,10,15,21-tetrahydrocorrin-3-yl]propanoic acid

>  <PUBCHEM_IUPAC_NAME_MARKUP>  (1) 
3-[1-acetyl-8,13,17-tris(2-carboxyethyl)-2,7,12,18-tetrakis(carboxymethyl)-2,7,11,17-tetramethyl-3,10,15,21-tetrahydrocorrin-3-yl]propanoic acid

>  <PUBCHEM_IUPAC_NAME>  (1) 
3-[1-acetyl-8,13,17-tris(2-carboxyethyl)-2,7,12,18-tetrakis(carboxymethyl)-2,7,11,17-tetramethyl-3,10,15,21-tetrahydrocorrin-3-yl]propanoic acid

>  <PUBCHEM_IUPAC_SYSTEMATIC_NAME>  (1) 
3-[1-ethanoyl-2,7,12,18-tetrakis(2-hydroxy-2-oxoethyl)-8,13,17-tris(3-hydroxy-3-oxopropyl)-2,7,11,17-tetramethyl-3,10,15,21-tetrahydrocorrin-3-yl]propanoic acid

>  <PUBCHEM_IUPAC_TRADITIONAL_NAME>  (1) 
3-[1-acetyl-8,13,17-tris(2-carboxyethyl)-2,7,12,18-tetrakis(carboxymethyl)-2,7,11,17-tetramethyl-3,10,15,21-tetrahydrocorrin-3-yl]propionic acid

>  <PUBCHEM_IUPAC_INCHI>  (1) 
InChI=1S/C45H54N4O17/c1-21(50)45-40-26(15-37(61)62)41(2,13-12-35(57)58)30(47-40)16-27-22(6-9-32(51)52)25(14-36(59)60)44(5,48-27)18-29-23(7-10-33(53)54)42(3,19-38(63)64)31(46-29)17-28(49-45)24(8-11-34(55)56)43(45,4)20-39(65)66/h17,24,49H,6-16,18-20H2,1-5H3,(H,51,52)(H,53,54)(H,55,56)(H,57,58)(H,59,60)(H,61,62)(H,63,64)(H,65,66)

>  <PUBCHEM_IUPAC_INCHIKEY>  (1) 
OUPXZNRNMLYOGK-UHFFFAOYSA-N

>  <PUBCHEM_XLOGP3_AA>  (1) 
-2.5

>  <PUBCHEM_EXACT_MASS>  (1) 
922.348396

>  <PUBCHEM_MOLECULAR_FORMULA>  (1) 
C45H54N4O17

>  <PUBCHEM_MOLECULAR_WEIGHT>  (1) 
922.9

>  <PUBCHEM_OPENEYE_CAN_SMILES>  (1) 
CC(=O)C12C3=C(C(C(=N3)CC4=NC(CC5=C(C(C(=N5)C=C(N1)C(C2(C)CC(=O)O)CCC(=O)O)(C)CC(=O)O)CCC(=O)O)(C(=C4CCC(=O)O)CC(=O)O)C)(C)CCC(=O)O)CC(=O)O

>  <PUBCHEM_OPENEYE_ISO_SMILES>  (1) 
CC(=O)C12C3=C(C(C(=N3)CC4=NC(CC5=C(C(C(=N5)C=C(N1)C(C2(C)CC(=O)O)CCC(=O)O)(C)CC(=O)O)CCC(=O)O)(C(=C4CCC(=O)O)CC(=O)O)C)(C)CCC(=O)O)CC(=O)O

>  <PUBCHEM_CACTVS_TPSA>  (1) 
365

>  <PUBCHEM_MONOISOTOPIC_WEIGHT>  (1) 
922.348396

>  <PUBCHEM_TOTAL_CHARGE>  (1) 
0

>  <PUBCHEM_HEAVY_ATOM_COUNT>  (1) 
66

>  <PUBCHEM_ATOM_DEF_STEREO_COUNT>  (1) 
0

>  <PUBCHEM_ATOM_UDEF_STEREO_COUNT>  (1) 
6

>  <PUBCHEM_BOND_DEF_STEREO_COUNT>  (1) 
0

>  <PUBCHEM_BOND_UDEF_STEREO_COUNT>  (1) 
1

>  <PUBCHEM_ISOTOPIC_ATOM_COUNT>  (1) 
0

>  <PUBCHEM_COMPONENT_COUNT>  (1) 
1

>  <PUBCHEM_CACTVS_TAUTO_COUNT>  (1) 
-1

>  <PUBCHEM_COORDINATE_TYPE>  (1) 
1
5
255

>  <PUBCHEM_BONDANNOTATIONS>  (1) 
22  28  3
23  32  3
24  29  3
25  34  1
30  40  3
41  53  3
45  57  3

$$$$
