529
     RDKit          2D

  9  8  0  0  0  0  0  0  0  0999 V2000
   -1.7638   -0.0000    0.0000 P   0  0  0  0  0  0  0  0  0  0  0  0
   -0.3465    0.4910    0.0000 O   0  0  0  0  0  0  0  0  0  0  0  0
   -1.2728   -1.4174    0.0000 O   0  0  0  0  0  0  0  0  0  0  0  0
   -3.1812   -0.4910    0.0000 O   0  0  0  0  0  0  0  0  0  0  0  0
   -2.2548    1.4174    0.0000 O   0  0  0  0  0  0  0  0  0  0  0  0
    3.3387   -0.9820    0.0000 O   0  0  0  0  0  0  0  0  0  0  0  0
    2.4883    1.4730    0.0000 O   0  0  0  0  0  0  0  0  0  0  0  0
    0.7874   -0.4910    0.0000 C   0  0  0  0  0  0  0  0  0  0  0  0
    2.2048    0.0000    0.0000 C   0  0  0  0  0  0  0  0  0  0  0  0
  1  2  1  0
  1  3  1  0
  1  4  1  0
  1  5  2  0
  2  8  1  0
  6  9  1  0
  7  9  2  0
  8  9  1  0
M  END
>  <PUBCHEM_COMPOUND_CID>  (1) 
529

>  <PUBCHEM_COMPOUND_CANONICALIZED>  (1) 
1

>  <PUBCHEM_CACTVS_COMPLEXITY>  (1) 
145

>  <PUBCHEM_CACTVS_HBOND_ACCEPTOR>  (1) 
6

>  <PUBCHEM_CACTVS_HBOND_DONOR>  (1) 
3

>  <PUBCHEM_CACTVS_ROTATABLE_BOND>  (1) 
3

>  <PUBCHEM_CACTVS_SUBSKEYS>  (1) 
AAADcYBAOAIAAAAAAAAAAAAAAAAAAAAAAAAAAAAAAAAAAAAAAAAAGgAACCAAAACggAIACAAAAxAIQACQCIIAAAAAAAAAAABAAAABAAAAAAAAAAAAAAABAAAAAAAAAAAAAAAAAAAAAAAAAAAAAAAAAAAAAA==

>  <PUBCHEM_IUPAC_OPENEYE_NAME>  (1) 
2-phosphonooxyacetic acid

>  <PUBCHEM_IUPAC_CAS_NAME>  (1) 
2-phosphonooxyacetic acid

>  <PUBCHEM_IUPAC_NAME_MARKUP>  (1) 
2-phosphonooxyacetic acid

>  <PUBCHEM_IUPAC_NAME>  (1) 
2-phosphonooxyacetic acid

>  <PUBCHEM_IUPAC_SYSTEMATIC_NAME>  (1) 
2-phosphonooxyethanoic acid

>  <PUBCHEM_IUPAC_TRADITIONAL_NAME>  (1) 
2-phosphonooxyacetic acid

>  <PUBCHEM_IUPAC_INCHI>  (1) 
InChI=1S/C2H5O6P/c3-2(4)1-8-9(5,6)7/h1H2,(H,3,4)(H2,5,6,7)

>  <PUBCHEM_IUPAC_INCHIKEY>  (1) 
ASCFNMCAHFUBCO-UHFFFAOYSA-N

>  <PUBCHEM_XLOGP3_AA>  (1) 
-2

>  <PUBCHEM_EXACT_MASS>  (1) 
155.982375

>  <PUBCHEM_MOLECULAR_FORMULA>  (1) 
C2H5O6P

>  <PUBCHEM_MOLECULAR_WEIGHT>  (1) 
156.03

>  <PUBCHEM_OPENEYE_CAN_SMILES>  (1) 
C(C(=O)O)OP(=O)(O)O

>  <PUBCHEM_OPENEYE_ISO_SMILES>  (1) 
C(C(=O)O)OP(=O)(O)O

>  <PUBCHEM_CACTVS_TPSA>  (1) 
104

>  <PUBCHEM_MONOISOTOPIC_WEIGHT>  (1) 
155.982375

>  <PUBCHEM_TOTAL_CHARGE>  (1) 
0

>  <PUBCHEM_HEAVY_ATOM_COUNT>  (1) 
9

>  <PUBCHEM_ATOM_DEF_STEREO_COUNT>  (1) 
0

>  <PUBCHEM_ATOM_UDEF_STEREO_COUNT>  (1) 
0

>  <PUBCHEM_BOND_DEF_STEREO_COUNT>  (1) 
0

>  <PUBCHEM_BOND_UDEF_STEREO_COUNT>  (1) 
0

>  <PUBCHEM_ISOTOPIC_ATOM_COUNT>  (1) 
0

>  <PUBCHEM_COMPONENT_COUNT>  (1) 
1

>  <PUBCHEM_CACTVS_TAUTO_COUNT>  (1) 
-1

>  <PUBCHEM_COORDINATE_TYPE>  (1) 
1
5
255

$$$$
