535
     RDKit          2D

  7  7  0  0  0  0  0  0  0  0999 V2000
    1.9356   -0.9598    0.0000 O   0  0  0  0  0  0  0  0  0  0  0  0
    1.3485    1.5711    0.0000 O   0  0  0  0  0  0  0  0  0  0  0  0
   -0.4697   -1.7006    0.0000 N   0  0  0  0  0  0  0  0  0  0  0  0
   -0.5498   -0.2027    0.0000 C   0  0  0  0  0  0  0  0  0  0  0  0
   -1.1373    1.1774    0.0000 C   0  0  0  0  0  0  0  0  0  0  0  0
   -2.0388   -0.0215    0.0000 C   0  0  0  0  0  0  0  0  0  0  0  0
    0.9114    0.1362    0.0000 C   0  0  0  0  0  0  0  0  0  0  0  0
  1  7  1  0
  2  7  2  0
  3  4  1  0
  4  5  1  0
  4  6  1  0
  4  7  1  0
  5  6  1  0
M  END
>  <PUBCHEM_COMPOUND_CID>  (1) 
535

>  <PUBCHEM_COMPOUND_CANONICALIZED>  (1) 
1

>  <PUBCHEM_CACTVS_COMPLEXITY>  (1) 
106

>  <PUBCHEM_CACTVS_HBOND_ACCEPTOR>  (1) 
3

>  <PUBCHEM_CACTVS_HBOND_DONOR>  (1) 
2

>  <PUBCHEM_CACTVS_ROTATABLE_BOND>  (1) 
1

>  <PUBCHEM_CACTVS_SUBSKEYS>  (1) 
AAADcYBiMAAAAAAAAAAAAAAAGAAAAAAAAAAAAAAAAAAAAAAAAAAAHgAQCAAADIiBgAAACABAAgAIAACQCAAAAAAAAAAAAAGAAAACABAAAAAAQAAEEAAAAAAAAAAAAAAAAAAAAAAAAAAAAAAAAAAAAAAAAA==

>  <PUBCHEM_IUPAC_OPENEYE_NAME>  (1) 
1-aminocyclopropanecarboxylic acid

>  <PUBCHEM_IUPAC_CAS_NAME>  (1) 
1-amino-1-cyclopropanecarboxylic acid

>  <PUBCHEM_IUPAC_NAME_MARKUP>  (1) 
1-aminocyclopropane-1-carboxylic acid

>  <PUBCHEM_IUPAC_NAME>  (1) 
1-aminocyclopropane-1-carboxylic acid

>  <PUBCHEM_IUPAC_SYSTEMATIC_NAME>  (1) 
1-azanylcyclopropane-1-carboxylic acid

>  <PUBCHEM_IUPAC_TRADITIONAL_NAME>  (1) 
1-aminocyclopropanecarboxylic acid

>  <PUBCHEM_IUPAC_INCHI>  (1) 
InChI=1S/C4H7NO2/c5-4(1-2-4)3(6)7/h1-2,5H2,(H,6,7)

>  <PUBCHEM_IUPAC_INCHIKEY>  (1) 
PAJPWUMXBYXFCZ-UHFFFAOYSA-N

>  <PUBCHEM_XLOGP3>  (1) 
-2.8

>  <PUBCHEM_EXACT_MASS>  (1) 
101.047678

>  <PUBCHEM_MOLECULAR_FORMULA>  (1) 
C4H7NO2

>  <PUBCHEM_MOLECULAR_WEIGHT>  (1) 
101.1

>  <PUBCHEM_OPENEYE_CAN_SMILES>  (1) 
C1CC1(C(=O)O)N

>  <PUBCHEM_OPENEYE_ISO_SMILES>  (1) 
C1CC1(C(=O)O)N

>  <PUBCHEM_CACTVS_TPSA>  (1) 
63.3

>  <PUBCHEM_MONOISOTOPIC_WEIGHT>  (1) 
101.047678

>  <PUBCHEM_TOTAL_CHARGE>  (1) 
0

>  <PUBCHEM_HEAVY_ATOM_COUNT>  (1) 
7

>  <PUBCHEM_ATOM_DEF_STEREO_COUNT>  (1) 
0

>  <PUBCHEM_ATOM_UDEF_STEREO_COUNT>  (1) 
0

>  <PUBCHEM_BOND_DEF_STEREO_COUNT>  (1) 
0

>  <PUBCHEM_BOND_UDEF_STEREO_COUNT>  (1) 
0

>  <PUBCHEM_ISOTOPIC_ATOM_COUNT>  (1) 
0

>  <PUBCHEM_COMPONENT_COUNT>  (1) 
1

>  <PUBCHEM_CACTVS_TAUTO_COUNT>  (1) 
-1

>  <PUBCHEM_COORDINATE_TYPE>  (1) 
1
5
255

$$$$
