536
     RDKit          2D

 63 67  0  0  1  0  0  0  0  0999 V2000
    5.5423    4.8691    0.0000 O   0  0  0  0  0  0  0  0  0  0  0  0
    3.3919    6.3270    0.0000 O   0  0  0  0  0  0  0  0  0  0  0  0
    7.8931    1.5127    0.0000 O   0  0  0  0  0  0  0  0  0  0  0  0
    6.9142   -0.8939    0.0000 O   0  0  0  0  0  0  0  0  0  0  0  0
    8.9972   -3.2206    0.0000 O   0  0  0  0  0  0  0  0  0  0  0  0
    1.1819    9.3758    0.0000 O   0  0  0  0  0  0  0  0  0  0  0  0
    8.6418   -0.6470    0.0000 O   0  0  0  0  0  0  0  0  0  0  0  0
   -1.2616    8.4930    0.0000 O   0  0  0  0  0  0  0  0  0  0  0  0
   -6.5494    4.6122    0.0000 O   0  0  0  0  0  0  0  0  0  0  0  0
   -7.7746    2.3211    0.0000 O   0  0  0  0  0  0  0  0  0  0  0  0
  -10.5757   -0.1954    0.0000 O   0  0  0  0  0  0  0  0  0  0  0  0
   -9.4423   -2.5332    0.0000 O   0  0  0  0  0  0  0  0  0  0  0  0
   -0.2446  -10.3521    0.0000 O   0  0  0  0  0  0  0  0  0  0  0  0
    1.9619   -8.9805    0.0000 O   0  0  0  0  0  0  0  0  0  0  0  0
    0.3464    1.8350    0.0000 N   0  0  0  0  0  0  0  0  0  0  0  0
    3.0373   -0.2958    0.0000 N   0  0  0  0  0  0  0  0  0  0  0  0
   -0.8283   -4.0111    0.0000 N   0  0  0  0  0  0  0  0  0  0  0  0
   -4.1191    0.2217    0.0000 N   0  0  0  0  0  0  0  0  0  0  0  0
    1.7572    2.3447    0.0000 C   0  0  0  0  0  0  0  0  0  0  0  0
    1.7084    3.8439    0.0000 C   0  0  0  0  0  0  0  0  0  0  0  0
    2.6779    1.1605    0.0000 C   0  0  0  0  0  0  0  0  0  0  0  0
    4.1353    0.2365    0.0000 C   0  0  0  0  0  0  0  0  0  0  0  0
    4.1841   -1.2627    0.0000 C   0  0  0  0  0  0  0  0  0  0  0  0
    0.2675    4.2608    0.0000 C   0  0  0  0  0  0  0  0  0  0  0  0
    2.7733   -1.7724    0.0000 C   0  0  0  0  0  0  0  0  0  0  0  0
   -0.5742    3.0192    0.0000 C   0  0  0  0  0  0  0  0  0  0  0  0
    3.2045    3.7357    0.0000 C   0  0  0  0  0  0  0  0  0  0  0  0
    3.1655    1.8284    0.0000 C   0  0  0  0  0  0  0  0  0  0  0  0
    1.9724    5.3205    0.0000 C   0  0  0  0  0  0  0  0  0  0  0  0
    5.6700   -1.0575    0.0000 C   0  0  0  0  0  0  0  0  0  0  0  0
    5.3195    1.1572    0.0000 C   0  0  0  0  0  0  0  0  0  0  0  0
   -0.2422    5.6715    0.0000 C   0  0  0  0  0  0  0  0  0  0  0  0
    1.9316   -3.0140    0.0000 C   0  0  0  0  0  0  0  0  0  0  0  0
    4.5435   -2.7190    0.0000 C   0  0  0  0  0  0  0  0  0  0  0  0
   -2.4724    2.6505    0.0000 C   0  0  0  0  0  0  0  0  0  0  0  0
   -5.1291    0.9064    0.0000 C   0  0  0  0  0  0  0  0  0  0  0  0
    0.6576   -3.8058    0.0000 C   0  0  0  0  0  0  0  0  0  0  0  0
   -3.5539    1.6111    0.0000 C   0  0  0  0  0  0  0  0  0  0  0  0
    6.5907   -2.2417    0.0000 C   0  0  0  0  0  0  0  0  0  0  0  0
   -5.3930   -0.5702    0.0000 C   0  0  0  0  0  0  0  0  0  0  0  0
    0.7247    6.8183    0.0000 C   0  0  0  0  0  0  0  0  0  0  0  0
   -2.2692   -3.5942    0.0000 C   0  0  0  0  0  0  0  0  0  0  0  0
    4.0462    4.9773    0.0000 C   0  0  0  0  0  0  0  0  0  0  0  0
    2.9710   -4.0954    0.0000 C   0  0  0  0  0  0  0  0  0  0  0  0
   -4.0703   -1.2775    0.0000 C   0  0  0  0  0  0  0  0  0  0  0  0
    6.7089    0.5920    0.0000 C   0  0  0  0  0  0  0  0  0  0  0  0
   -3.4159   -2.6273    0.0000 C   0  0  0  0  0  0  0  0  0  0  0  0
   -0.4136   -5.1587    0.0000 C   0  0  0  0  0  0  0  0  0  0  0  0
   -3.2643    3.9245    0.0000 C   0  0  0  0  0  0  0  0  0  0  0  0
   -1.9097   -5.0505    0.0000 C   0  0  0  0  0  0  0  0  0  0  0  0
   -5.1779    2.4056    0.0000 C   0  0  0  0  0  0  0  0  0  0  0  0
   -6.6252    1.0146    0.0000 C   0  0  0  0  0  0  0  0  0  0  0  0
   -6.7428   -1.2245    0.0000 C   0  0  0  0  0  0  0  0  0  0  0  0
   -2.9765   -4.9169    0.0000 C   0  0  0  0  0  0  0  0  0  0  0  0
    0.3782   -6.4326    0.0000 C   0  0  0  0  0  0  0  0  0  0  0  0
    8.0766   -2.0364    0.0000 C   0  0  0  0  0  0  0  0  0  0  0  0
    0.2150    8.2291    0.0000 C   0  0  0  0  0  0  0  0  0  0  0  0
   -7.9844   -0.3828    0.0000 C   0  0  0  0  0  0  0  0  0  0  0  0
   -2.8766   -6.1973    0.0000 C   0  0  0  0  0  0  0  0  0  0  0  0
   -6.5006    3.1130    0.0000 C   0  0  0  0  0  0  0  0  0  0  0  0
   -0.3291   -7.7554    0.0000 C   0  0  0  0  0  0  0  0  0  0  0  0
   -9.3341   -1.0372    0.0000 C   0  0  0  0  0  0  0  0  0  0  0  0
    0.4627   -9.0293    0.0000 C   0  0  0  0  0  0  0  0  0  0  0  0
  1 43  1  0
  2 43  2  0
  3 46  1  0
  4 46  2  0
  5 56  1  0
  6 57  1  0
  7 56  2  0
  8 57  2  0
  9 60  1  0
 10 60  2  0
 11 62  1  0
 12 62  2  0
 13 63  1  0
 14 63  2  0
 15 19  1  0
 15 26  2  0
 16 21  1  0
 16 25  2  0
 17 37  1  0
 17 42  1  0
 18 38  1  0
 18 45  2  0
 19 20  1  0
 19 21  1  0
 19 28  1  0
 20 24  1  0
 20 27  1  0
 20 29  1  0
 21 22  1  0
 22 23  1  0
 22 31  1  0
 23 25  1  0
 23 30  1  0
 23 34  1  0
 24 26  1  0
 24 32  1  0
 25 33  1  0
 26 35  1  0
 27 43  1  0
 30 39  1  0
 31 46  1  0
 32 41  1  0
 33 37  1  0
 33 44  1  0
 35 38  2  3
 35 49  1  0
 36 38  1  0
 36 40  1  0
 36 51  1  0
 36 52  1  0
 37 48  2  0
 39 56  1  0
 40 45  1  0
 40 53  1  0
 41 57  1  0
 42 47  1  0
 42 50  1  0
 42 54  1  0
 45 47  1  0
 48 50  1  0
 48 55  1  0
 50 59  2  0
 51 60  1  0
 53 58  1  0
 55 61  1  0
 58 62  1  0
 61 63  1  0
M  END
>  <PUBCHEM_COMPOUND_CID>  (1) 
536

>  <PUBCHEM_COMPOUND_CANONICALIZED>  (1) 
1

>  <PUBCHEM_CACTVS_COMPLEXITY>  (1) 
2210

>  <PUBCHEM_CACTVS_HBOND_ACCEPTOR>  (1) 
18

>  <PUBCHEM_CACTVS_HBOND_DONOR>  (1) 
8

>  <PUBCHEM_CACTVS_ROTATABLE_BOND>  (1) 
18

>  <PUBCHEM_CACTVS_SUBSKEYS>  (1) 
AAADcfB/vAAAAAAAAAAAAAAAAAAAAQIECAAAAAAAAAAAAAAAAAAAHgAQCAAAD6jBgAQCCALAAgCoAwTyTACAAAAgAAAACAEwABgIQBIAgAAEQAAEkACIgAO82fGfgAAAAAAAAAAAAAAAAAAAAAAAAAAAAA==

>  <PUBCHEM_IUPAC_OPENEYE_NAME>  (1) 
3-[3,13,17-tris(2-carboxyethyl)-2,7,18-tris(carboxymethyl)-1,2,5,7,11,15,17-heptamethyl-12-methylene-8,10,15,18,19,23-hexahydro-3H-corrin-8-yl]propanoic acid

>  <PUBCHEM_IUPAC_CAS_NAME>  (1) 
3-[3,13,17-tris(2-carboxyethyl)-2,7,18-tris(carboxymethyl)-1,2,5,7,11,15,17-heptamethyl-12-methylene-8,10,15,18,19,23-hexahydro-3H-corrin-8-yl]propanoic acid

>  <PUBCHEM_IUPAC_NAME_MARKUP>  (1) 
3-[3,13,17-tris(2-carboxyethyl)-2,7,18-tris(carboxymethyl)-1,2,5,7,11,15,17-heptamethyl-12-methylidene-8,10,15,18,19,23-hexahydro-3<I>H</I>-corrin-8-yl]propanoic acid

>  <PUBCHEM_IUPAC_NAME>  (1) 
3-[3,13,17-tris(2-carboxyethyl)-2,7,18-tris(carboxymethyl)-1,2,5,7,11,15,17-heptamethyl-12-methylidene-8,10,15,18,19,23-hexahydro-3H-corrin-8-yl]propanoic acid

>  <PUBCHEM_IUPAC_SYSTEMATIC_NAME>  (1) 
3-[2,7,18-tris(2-hydroxy-2-oxoethyl)-3,13,17-tris(3-hydroxy-3-oxopropyl)-1,2,5,7,11,15,17-heptamethyl-12-methylidene-8,10,15,18,19,23-hexahydro-3H-corrin-8-yl]propanoic acid

>  <PUBCHEM_IUPAC_TRADITIONAL_NAME>  (1) 
3-[3,13,17-tris(2-carboxyethyl)-2,7,18-tris(carboxymethyl)-1,2,5,7,11,15,17-heptamethyl-12-methylene-8,10,15,18,19,23-hexahydro-3H-corrin-8-yl]propionic acid

>  <PUBCHEM_IUPAC_INCHI>  (1) 
InChI=1S/C45H60N4O14/c1-21-36-24(9-12-29(50)51)23(3)44(7,48-36)18-28-25(10-13-30(52)53)42(5,19-34(60)61)39(46-28)22(2)37-26(11-14-31(54)55)43(6,20-35(62)63)45(8,49-37)40-27(17-33(58)59)41(4,38(21)47-40)16-15-32(56)57/h21,25-27,40,48H,3,9-20H2,1-2,4-8H3,(H,50,51)(H,52,53)(H,54,55)(H,56,57)(H,58,59)(H,60,61)(H,62,63)

>  <PUBCHEM_IUPAC_INCHIKEY>  (1) 
LPJNFGOOIPHXHU-UHFFFAOYSA-N

>  <PUBCHEM_XLOGP3_AA>  (1) 
-0.3

>  <PUBCHEM_EXACT_MASS>  (1) 
880.410603

>  <PUBCHEM_MOLECULAR_FORMULA>  (1) 
C45H60N4O14

>  <PUBCHEM_MOLECULAR_WEIGHT>  (1) 
881

>  <PUBCHEM_OPENEYE_CAN_SMILES>  (1) 
CC1C2=C(C(=C)C(N2)(CC3=NC(=C(C4=NC(C5C(C(C1=N5)(C)CCC(=O)O)CC(=O)O)(C(C4CCC(=O)O)(C)CC(=O)O)C)C)C(C3CCC(=O)O)(C)CC(=O)O)C)CCC(=O)O

>  <PUBCHEM_OPENEYE_ISO_SMILES>  (1) 
CC1C2=C(C(=C)C(N2)(CC3=NC(=C(C4=NC(C5C(C(C1=N5)(C)CCC(=O)O)CC(=O)O)(C(C4CCC(=O)O)(C)CC(=O)O)C)C)C(C3CCC(=O)O)(C)CC(=O)O)C)CCC(=O)O

>  <PUBCHEM_CACTVS_TPSA>  (1) 
310

>  <PUBCHEM_MONOISOTOPIC_WEIGHT>  (1) 
880.410603

>  <PUBCHEM_TOTAL_CHARGE>  (1) 
0

>  <PUBCHEM_HEAVY_ATOM_COUNT>  (1) 
63

>  <PUBCHEM_ATOM_DEF_STEREO_COUNT>  (1) 
0

>  <PUBCHEM_ATOM_UDEF_STEREO_COUNT>  (1) 
10

>  <PUBCHEM_BOND_DEF_STEREO_COUNT>  (1) 
0

>  <PUBCHEM_BOND_UDEF_STEREO_COUNT>  (1) 
1

>  <PUBCHEM_ISOTOPIC_ATOM_COUNT>  (1) 
0

>  <PUBCHEM_COMPONENT_COUNT>  (1) 
1

>  <PUBCHEM_CACTVS_TAUTO_COUNT>  (1) 
-1

>  <PUBCHEM_COORDINATE_TYPE>  (1) 
1
5
255

>  <PUBCHEM_BONDANNOTATIONS>  (1) 
21  16  3
19  28  3
20  29  3
22  31  3
23  34  3
24  32  3
33  44  3
35  38  1
36  52  3
40  53  3
42  54  3

$$$$
