539
     RDKit          2D

 64 67  0  0  1  0  0  0  0  0999 V2000
    0.0000    8.7385    0.0000 Co  0  0  0  0  0 15  0  0  0  0  0  0
   -5.1501    5.2367    0.0000 O   0  0  0  0  0  0  0  0  0  0  0  0
   -1.0564    7.0244    0.0000 O   0  0  0  0  0  0  0  0  0  0  0  0
   -2.9415    4.1323    0.0000 O   0  0  0  0  0  0  0  0  0  0  0  0
    7.9481   -0.0577    0.0000 O   0  0  0  0  0  0  0  0  0  0  0  0
   -9.7108   -0.4651    0.0000 O   0  0  0  0  0  0  0  0  0  0  0  0
    6.1062    6.1812    0.0000 O   0  0  0  0  0  0  0  0  0  0  0  0
   -8.6199    1.8928    0.0000 O   0  0  0  0  0  0  0  0  0  0  0  0
    4.0265    7.7385    0.0000 O   0  0  0  0  0  0  0  0  0  0  0  0
   -6.3725   -6.0714    0.0000 O   0  0  0  0  0  0  0  0  0  0  0  0
   -4.6621   -8.0270    0.0000 O   0  0  0  0  0  0  0  0  0  0  0  0
    6.3609   -7.0929    0.0000 O   0  0  0  0  0  0  0  0  0  0  0  0
    8.1270   -5.1875    0.0000 O   0  0  0  0  0  0  0  0  0  0  0  0
   -2.1090   -0.0317    0.0000 N   0  0  0  0  0  0  0  0  0  0  0  0
    0.3095    3.0364    0.0000 N   0  0  0  0  0  0  0  0  0  0  0  0
   -0.5434   -4.0878    0.0000 N   0  0  0  0  0  0  0  0  0  0  0  0
    3.8392   -0.9993    0.0000 N   0  0  0  0  0  0  0  0  0  0  0  0
   -3.5386    6.2573    0.0000 N   0  0  0  0  0  0  0  0  0  0  0  0
    7.4447    2.4911    0.0000 N   0  0  0  0  0  0  0  0  0  0  0  0
   -1.1620    2.7458    0.0000 C   0  0  0  0  0  0  0  0  0  0  0  0
   -2.5519    1.4014    0.0000 C   0  0  0  0  0  0  0  0  0  0  0  0
   -0.1706    4.1582    0.0000 C   0  0  0  0  0  0  0  0  0  0  0  0
   -4.0517    1.4231    0.0000 C   0  0  0  0  0  0  0  0  0  0  0  0
   -3.3351   -0.8958    0.0000 C   0  0  0  0  0  0  0  0  0  0  0  0
   -4.5358    0.0033    0.0000 C   0  0  0  0  0  0  0  0  0  0  0  0
   -1.9048   -3.4580    0.0000 C   0  0  0  0  0  0  0  0  0  0  0  0
    1.3292    4.1365    0.0000 C   0  0  0  0  0  0  0  0  0  0  0  0
    1.7721    2.7034    0.0000 C   0  0  0  0  0  0  0  0  0  0  0  0
   -2.8923   -2.3289    0.0000 C   0  0  0  0  0  0  0  0  0  0  0  0
    0.9565   -4.1094    0.0000 C   0  0  0  0  0  0  0  0  0  0  0  0
   -1.2748   -5.0645    0.0000 C   0  0  0  0  0  0  0  0  0  0  0  0
    0.1878   -5.3975    0.0000 C   0  0  0  0  0  0  0  0  0  0  0  0
    3.7040    0.4946    0.0000 C   0  0  0  0  0  0  0  0  0  0  0  0
    3.3551   -2.4191    0.0000 C   0  0  0  0  0  0  0  0  0  0  0  0
   -1.9778    3.8214    0.0000 C   0  0  0  0  0  0  0  0  0  0  0  0
    5.0050   -0.6391    0.0000 C   0  0  0  0  0  0  0  0  0  0  0  0
    2.9728    1.8043    0.0000 C   0  0  0  0  0  0  0  0  0  0  0  0
    2.3354   -3.5192    0.0000 C   0  0  0  0  0  0  0  0  0  0  0  0
    4.8267   -2.1284    0.0000 C   0  0  0  0  0  0  0  0  0  0  0  0
   -1.6332    4.4912    0.0000 C   0  0  0  0  0  0  0  0  0  0  0  0
    0.0077    5.6475    0.0000 C   0  0  0  0  0  0  0  0  0  0  0  0
   -4.9158    2.6492    0.0000 C   0  0  0  0  0  0  0  0  0  0  0  0
   -5.8972    0.6332    0.0000 C   0  0  0  0  0  0  0  0  0  0  0  0
   -5.3045   -1.2847    0.0000 C   0  0  0  0  0  0  0  0  0  0  0  0
    2.2283    5.3372    0.0000 C   0  0  0  0  0  0  0  0  0  0  0  0
   -4.2020   -3.0601    0.0000 C   0  0  0  0  0  0  0  0  0  0  0  0
   -2.4039   -6.0520    0.0000 C   0  0  0  0  0  0  0  0  0  0  0  0
    1.5492   -6.0273    0.0000 C   0  0  0  0  0  0  0  0  0  0  0  0
   -0.2963   -6.8173    0.0000 C   0  0  0  0  0  0  0  0  0  0  0  0
    5.4891    0.7807    0.0000 C   0  0  0  0  0  0  0  0  0  0  0  0
    5.9268   -3.1481    0.0000 C   0  0  0  0  0  0  0  0  0  0  0  0
    6.4676   -0.9721    0.0000 C   0  0  0  0  0  0  0  0  0  0  0  0
    4.1019    2.7918    0.0000 C   0  0  0  0  0  0  0  0  0  0  0  0
   -7.1233   -0.2309    0.0000 C   0  0  0  0  0  0  0  0  0  0  0  0
   -2.0761    5.9243    0.0000 C   0  0  0  0  0  0  0  0  0  0  0  0
    3.7177    5.1589    0.0000 C   0  0  0  0  0  0  0  0  0  0  0  0
   -4.2860    4.0106    0.0000 C   0  0  0  0  0  0  0  0  0  0  0  0
   -3.8236   -5.5679    0.0000 C   0  0  0  0  0  0  0  0  0  0  0  0
    5.5938   -4.6107    0.0000 C   0  0  0  0  0  0  0  0  0  0  0  0
    6.9606    1.0713    0.0000 C   0  0  0  0  0  0  0  0  0  0  0  0
   -8.4847    0.3989    0.0000 C   0  0  0  0  0  0  0  0  0  0  0  0
    4.6168    6.3596    0.0000 C   0  0  0  0  0  0  0  0  0  0  0  0
   -4.9527   -6.5554    0.0000 C   0  0  0  0  0  0  0  0  0  0  0  0
    6.6939   -5.6304    0.0000 C   0  0  0  0  0  0  0  0  0  0  0  0
  2 57  1  0
  3 55  2  0
  4 57  2  0
  5 60  2  0
  6 61  1  0
  7 62  1  0
  8 61  2  0
  9 62  2  0
 10 63  1  0
 11 63  2  0
 12 64  1  0
 13 64  2  0
 14 21  1  0
 14 24  2  0
 15 20  1  0
 15 28  2  0
 16 26  1  0
 16 30  2  0
 17 33  1  0
 17 34  2  0
 18 55  1  0
 19 60  1  0
 20 21  1  0
 20 22  1  0
 20 35  1  0
 21 23  1  0
 22 27  1  0
 22 40  1  0
 22 41  1  0
 23 25  1  0
 23 42  1  0
 24 25  1  0
 24 29  1  0
 25 43  1  0
 25 44  1  0
 26 29  1  0
 26 31  1  0
 27 28  1  0
 27 45  1  0
 28 37  1  0
 29 46  1  0
 30 32  1  0
 30 38  1  0
 31 32  1  0
 31 47  1  0
 32 48  1  0
 32 49  1  0
 33 36  1  0
 33 37  2  3
 34 38  1  0
 34 39  1  0
 36 39  1  0
 36 50  1  0
 36 52  1  0
 37 53  1  0
 39 51  1  0
 40 55  1  0
 42 57  1  0
 43 54  1  0
 45 56  1  0
 47 58  1  0
 50 60  1  0
 51 59  1  0
 54 61  1  0
 56 62  1  0
 58 63  1  0
 59 64  1  0
M  END
>  <PUBCHEM_COMPOUND_CID>  (1) 
539

>  <PUBCHEM_COMPOUND_CANONICALIZED>  (1) 
1

>  <PUBCHEM_CACTVS_COMPLEXITY>  (1) 
2150

>  <PUBCHEM_CACTVS_HBOND_ACCEPTOR>  (1) 
16

>  <PUBCHEM_CACTVS_HBOND_DONOR>  (1) 
7

>  <PUBCHEM_CACTVS_ROTATABLE_BOND>  (1) 
18

>  <PUBCHEM_CACTVS_SUBSKEYS>  (1) 
AAADcfB/vAAAAAAQAAAAAAAAAAAAAWIECBAgQIAAAAAQIFgAAAAAHgAQCAAAD6jBgAQCCAJAAgCoAwXwXAAAAAAgAAAACAEwABgAQBIAgAAAQAAEkAAIAAO82fGfgAAAAAAAAAAAAAAAAAAAAAAAAAAAAA==

>  <PUBCHEM_IUPAC_OPENEYE_NAME>  (1) 
3-[13,18-bis(2-amino-2-oxo-ethyl)-3,12,17-tris(2-carboxyethyl)-2-(carboxymethyl)-3,5,8,8,13,15,18,19-octamethyl-1,2,5,6,7,10,12,17-octahydrocorrin-7-yl]propanoic acid;cobalt

>  <PUBCHEM_IUPAC_CAS_NAME>  (1) 
3-[13,18-bis(2-amino-2-oxoethyl)-3,12,17-tris(2-carboxyethyl)-2-(carboxymethyl)-3,5,8,8,13,15,18,19-octamethyl-1,2,5,6,7,10,12,17-octahydrocorrin-7-yl]propanoic acid;cobalt

>  <PUBCHEM_IUPAC_NAME_MARKUP>  (1) 
3-[13,18-bis(2-amino-2-oxoethyl)-3,12,17-tris(2-carboxyethyl)-2-(carboxymethyl)-3,5,8,8,13,15,18,19-octamethyl-1,2,5,6,7,10,12,17-octahydrocorrin-7-yl]propanoic acid;cobalt

>  <PUBCHEM_IUPAC_NAME>  (1) 
3-[13,18-bis(2-amino-2-oxoethyl)-3,12,17-tris(2-carboxyethyl)-2-(carboxymethyl)-3,5,8,8,13,15,18,19-octamethyl-1,2,5,6,7,10,12,17-octahydrocorrin-7-yl]propanoic acid;cobalt

>  <PUBCHEM_IUPAC_SYSTEMATIC_NAME>  (1) 
3-[13,18-bis(2-azanyl-2-oxidanylidene-ethyl)-2-(2-hydroxy-2-oxoethyl)-3,12,17-tris(3-hydroxy-3-oxopropyl)-3,5,8,8,13,15,18,19-octamethyl-1,2,5,6,7,10,12,17-octahydrocorrin-7-yl]propanoic acid;cobalt

>  <PUBCHEM_IUPAC_TRADITIONAL_NAME>  (1) 
3-[13,18-bis(2-amino-2-keto-ethyl)-3,12,17-tris(2-carboxyethyl)-2-(carboxymethyl)-3,5,8,8,13,15,18,19-octamethyl-1,2,5,6,7,10,12,17-octahydrocorrin-7-yl]propionic acid;cobalt

>  <PUBCHEM_IUPAC_INCHI>  (1) 
InChI=1S/C45H64N6O12.Co/c1-21-36-24(10-13-32(56)57)41(3,4)28(49-36)18-27-23(9-12-31(54)55)43(6,19-29(46)52)39(48-27)22(2)37-25(11-14-33(58)59)44(7,20-30(47)53)45(8,51-37)40-26(17-35(62)63)42(5,38(21)50-40)16-15-34(60)61;/h21,23-26,36,40H,9-20H2,1-8H3,(H2,46,52)(H2,47,53)(H,54,55)(H,56,57)(H,58,59)(H,60,61)(H,62,63);

>  <PUBCHEM_IUPAC_INCHIKEY>  (1) 
YQSFSUFQKPICDG-UHFFFAOYSA-N

>  <PUBCHEM_EXACT_MASS>  (1) 
939.391415

>  <PUBCHEM_MOLECULAR_FORMULA>  (1) 
C45H64CoN6O12

>  <PUBCHEM_MOLECULAR_WEIGHT>  (1) 
940

>  <PUBCHEM_OPENEYE_CAN_SMILES>  (1) 
CC1C2C(C(C(=N2)CC3=NC(=C(C4=NC(C5C(C(C1=N5)(C)CCC(=O)O)CC(=O)O)(C(C4CCC(=O)O)(C)CC(=O)N)C)C)C(C3CCC(=O)O)(C)CC(=O)N)(C)C)CCC(=O)O.[Co]

>  <PUBCHEM_OPENEYE_ISO_SMILES>  (1) 
CC1C2C(C(C(=N2)CC3=NC(=C(C4=NC(C5C(C(C1=N5)(C)CCC(=O)O)CC(=O)O)(C(C4CCC(=O)O)(C)CC(=O)N)C)C)C(C3CCC(=O)O)(C)CC(=O)N)(C)C)CCC(=O)O.[Co]

>  <PUBCHEM_CACTVS_TPSA>  (1) 
322

>  <PUBCHEM_MONOISOTOPIC_WEIGHT>  (1) 
939.391415

>  <PUBCHEM_TOTAL_CHARGE>  (1) 
0

>  <PUBCHEM_HEAVY_ATOM_COUNT>  (1) 
64

>  <PUBCHEM_ATOM_DEF_STEREO_COUNT>  (1) 
0

>  <PUBCHEM_ATOM_UDEF_STEREO_COUNT>  (1) 
11

>  <PUBCHEM_BOND_DEF_STEREO_COUNT>  (1) 
0

>  <PUBCHEM_BOND_UDEF_STEREO_COUNT>  (1) 
1

>  <PUBCHEM_ISOTOPIC_ATOM_COUNT>  (1) 
0

>  <PUBCHEM_COMPONENT_COUNT>  (1) 
2

>  <PUBCHEM_CACTVS_TAUTO_COUNT>  (1) 
-1

>  <PUBCHEM_NONSTANDARDBOND>  (1) 
1  14  6
1  15  6
1  16  6
1  17  6

>  <PUBCHEM_COORDINATE_TYPE>  (1) 
1
5
255

>  <PUBCHEM_BONDANNOTATIONS>  (1) 
21  14  3
26  16  3
20  35  3
22  41  3
23  42  3
25  44  3
27  45  3
29  46  3
31  47  3
33  37  1
36  52  3
39  51  3

$$$$
