541
     RDKit          2D

 11 11  0  0  0  0  0  0  0  0999 V2000
   -3.5305    1.0797    0.0000 O   0  0  0  0  0  0  0  0  0  0  0  0
   -3.2784   -1.5061    0.0000 O   0  0  0  0  0  0  0  0  0  0  0  0
    4.1862   -0.7785    0.0000 O   0  0  0  0  0  0  0  0  0  0  0  0
   -2.6580   -0.1404    0.0000 N   0  0  0  0  0  0  0  0  0  0  0  0
   -1.1651    0.0051    0.0000 C   0  0  0  0  0  0  0  0  0  0  0  0
    1.8208    0.2961    0.0000 C   0  0  0  0  0  0  0  0  0  0  0  0
   -0.5446    1.3708    0.0000 C   0  0  0  0  0  0  0  0  0  0  0  0
   -0.2926   -1.2151    0.0000 C   0  0  0  0  0  0  0  0  0  0  0  0
    0.9483    1.5163    0.0000 C   0  0  0  0  0  0  0  0  0  0  0  0
    1.2003   -1.0695    0.0000 C   0  0  0  0  0  0  0  0  0  0  0  0
    3.3137    0.4417    0.0000 C   0  0  0  0  0  0  0  0  0  0  0  0
  1  4  1  0
  2  4  2  0
  3 11  2  0
  4  5  1  0
  5  7  2  0
  5  8  1  0
  6  9  2  0
  6 10  1  0
  6 11  1  0
  7  9  1  0
  8 10  2  0
M  CHG  2   1  -1   4   1
M  END
>  <PUBCHEM_COMPOUND_CID>  (1) 
541

>  <PUBCHEM_COMPOUND_CANONICALIZED>  (1) 
1

>  <PUBCHEM_CACTVS_COMPLEXITY>  (1) 
156

>  <PUBCHEM_CACTVS_HBOND_ACCEPTOR>  (1) 
3

>  <PUBCHEM_CACTVS_HBOND_DONOR>  (1) 
0

>  <PUBCHEM_CACTVS_ROTATABLE_BOND>  (1) 
1

>  <PUBCHEM_CACTVS_SUBSKEYS>  (1) 
AAADcYBiMAAAAAAAAAAAAAAAAAAAAAAAAAAwAAAAAAAAAAABAAAAHgAEAAAADAihmAIwwIAQQACJAixSwwCCAAAkAgAoiAEAZMoIIDKAlZGAIQBggAAIyYcYiQCeCAAAAAAAAAAQAAAAAAAAAAAAAAAAAA==

>  <PUBCHEM_IUPAC_OPENEYE_NAME>  (1) 
4-nitrobenzaldehyde

>  <PUBCHEM_IUPAC_CAS_NAME>  (1) 
4-nitrobenzaldehyde

>  <PUBCHEM_IUPAC_NAME_MARKUP>  (1) 
4-nitrobenzaldehyde

>  <PUBCHEM_IUPAC_NAME>  (1) 
4-nitrobenzaldehyde

>  <PUBCHEM_IUPAC_SYSTEMATIC_NAME>  (1) 
4-nitrobenzaldehyde

>  <PUBCHEM_IUPAC_TRADITIONAL_NAME>  (1) 
4-nitrobenzaldehyde

>  <PUBCHEM_IUPAC_INCHI>  (1) 
InChI=1S/C7H5NO3/c9-5-6-1-3-7(4-2-6)8(10)11/h1-5H

>  <PUBCHEM_IUPAC_INCHIKEY>  (1) 
BXRFQSNOROATLV-UHFFFAOYSA-N

>  <PUBCHEM_XLOGP3>  (1) 
1.6

>  <PUBCHEM_EXACT_MASS>  (1) 
151.026943

>  <PUBCHEM_MOLECULAR_FORMULA>  (1) 
C7H5NO3

>  <PUBCHEM_MOLECULAR_WEIGHT>  (1) 
151.12

>  <PUBCHEM_OPENEYE_CAN_SMILES>  (1) 
C1=CC(=CC=C1C=O)[N+](=O)[O-]

>  <PUBCHEM_OPENEYE_ISO_SMILES>  (1) 
C1=CC(=CC=C1C=O)[N+](=O)[O-]

>  <PUBCHEM_CACTVS_TPSA>  (1) 
62.9

>  <PUBCHEM_MONOISOTOPIC_WEIGHT>  (1) 
151.026943

>  <PUBCHEM_TOTAL_CHARGE>  (1) 
0

>  <PUBCHEM_HEAVY_ATOM_COUNT>  (1) 
11

>  <PUBCHEM_ATOM_DEF_STEREO_COUNT>  (1) 
0

>  <PUBCHEM_ATOM_UDEF_STEREO_COUNT>  (1) 
0

>  <PUBCHEM_BOND_DEF_STEREO_COUNT>  (1) 
0

>  <PUBCHEM_BOND_UDEF_STEREO_COUNT>  (1) 
0

>  <PUBCHEM_ISOTOPIC_ATOM_COUNT>  (1) 
0

>  <PUBCHEM_COMPONENT_COUNT>  (1) 
1

>  <PUBCHEM_CACTVS_TAUTO_COUNT>  (1) 
-1

>  <PUBCHEM_COORDINATE_TYPE>  (1) 
1
5
255

>  <PUBCHEM_BONDANNOTATIONS>  (1) 
5  7  8
5  8  8
6  10  8
6  9  8
7  9  8
8  10  8

$$$$
