545
     RDKit          2D

  4  3  0  0  0  0  0  0  0  0999 V2000
    0.0000    0.0000    0.0000 As  0  0  0  0  0  3  0  0  0  0  0  0
   -1.2990   -0.7500    0.0000 O   0  0  0  0  0  0  0  0  0  0  0  0
    1.2990   -0.7500    0.0000 O   0  0  0  0  0  0  0  0  0  0  0  0
    0.0000    1.5000    0.0000 O   0  0  0  0  0  0  0  0  0  0  0  0
  1  2  1  0
  1  3  1  0
  1  4  1  0
M  END
>  <PUBCHEM_COMPOUND_CID>  (1) 
545

>  <PUBCHEM_COMPOUND_CANONICALIZED>  (1) 
1

>  <PUBCHEM_CACTVS_COMPLEXITY>  (1) 
8

>  <PUBCHEM_CACTVS_HBOND_ACCEPTOR>  (1) 
3

>  <PUBCHEM_CACTVS_HBOND_DONOR>  (1) 
3

>  <PUBCHEM_CACTVS_ROTATABLE_BOND>  (1) 
0

>  <PUBCHEM_CACTVS_SUBSKEYS>  (1) 
AAADcQAAMAAAAAAAQAAAAAAAAAAAAAAAAAAAAAAAAAAAAAAAAAAAAAAACAAAAAAAAAAAAAAAAAAAAAAAAAAAAAAAAAAAAAAAAAAAAAAAAAAAAAAAAAAAAAAAAAAAAAAAAAAAAAAAAAAAAAAAAAAAAAAAAA==

>  <PUBCHEM_IUPAC_OPENEYE_NAME>  (1) 
arsorous acid

>  <PUBCHEM_IUPAC_CAS_NAME>  (1) 
arsorous acid

>  <PUBCHEM_IUPAC_NAME_MARKUP>  (1) 
arsorous acid

>  <PUBCHEM_IUPAC_NAME>  (1) 
arsorous acid

>  <PUBCHEM_IUPAC_SYSTEMATIC_NAME>  (1) 
arsorous acid

>  <PUBCHEM_IUPAC_TRADITIONAL_NAME>  (1) 
arsorous acid

>  <PUBCHEM_IUPAC_INCHI>  (1) 
InChI=1S/AsH3O3/c2-1(3)4/h2-4H

>  <PUBCHEM_IUPAC_INCHIKEY>  (1) 
GCPXMJHSNVMWNM-UHFFFAOYSA-N

>  <PUBCHEM_EXACT_MASS>  (1) 
125.929814

>  <PUBCHEM_MOLECULAR_FORMULA>  (1) 
AsH3O3

>  <PUBCHEM_MOLECULAR_WEIGHT>  (1) 
125.944

>  <PUBCHEM_OPENEYE_CAN_SMILES>  (1) 
O[As](O)O

>  <PUBCHEM_OPENEYE_ISO_SMILES>  (1) 
O[As](O)O

>  <PUBCHEM_CACTVS_TPSA>  (1) 
60.7

>  <PUBCHEM_MONOISOTOPIC_WEIGHT>  (1) 
125.929814

>  <PUBCHEM_TOTAL_CHARGE>  (1) 
0

>  <PUBCHEM_HEAVY_ATOM_COUNT>  (1) 
4

>  <PUBCHEM_ATOM_DEF_STEREO_COUNT>  (1) 
0

>  <PUBCHEM_ATOM_UDEF_STEREO_COUNT>  (1) 
0

>  <PUBCHEM_BOND_DEF_STEREO_COUNT>  (1) 
0

>  <PUBCHEM_BOND_UDEF_STEREO_COUNT>  (1) 
0

>  <PUBCHEM_ISOTOPIC_ATOM_COUNT>  (1) 
0

>  <PUBCHEM_COMPONENT_COUNT>  (1) 
1

>  <PUBCHEM_CACTVS_TAUTO_COUNT>  (1) 
-1

>  <PUBCHEM_COORDINATE_TYPE>  (1) 
1
5
255

$$$$
