547
     RDKit          2D

 12 12  0  0  0  0  0  0  0  0999 V2000
    2.0133    2.3204    0.0000 O   0  0  0  0  0  0  0  0  0  0  0  0
    3.9290    0.0117    0.0000 O   0  0  0  0  0  0  0  0  0  0  0  0
   -4.4219   -0.0959    0.0000 O   0  0  0  0  0  0  0  0  0  0  0  0
   -2.4226    1.5632    0.0000 O   0  0  0  0  0  0  0  0  0  0  0  0
   -0.5068   -0.7454    0.0000 C   0  0  0  0  0  0  0  0  0  0  0  0
   -1.9854   -0.9978    0.0000 C   0  0  0  0  0  0  0  0  0  0  0  0
    0.0139    0.6613    0.0000 C   0  0  0  0  0  0  0  0  0  0  0  0
    0.4511   -1.8997    0.0000 C   0  0  0  0  0  0  0  0  0  0  0  0
    1.4925    0.9137    0.0000 C   0  0  0  0  0  0  0  0  0  0  0  0
    1.9297   -1.6474    0.0000 C   0  0  0  0  0  0  0  0  0  0  0  0
    2.4504   -0.2407    0.0000 C   0  0  0  0  0  0  0  0  0  0  0  0
   -2.9433    0.1565    0.0000 C   0  0  0  0  0  0  0  0  0  0  0  0
  1  9  1  0
  2 11  1  0
  3 12  1  0
  4 12  2  0
  5  6  1  0
  5  7  2  0
  5  8  1  0
  6 12  1  0
  7  9  1  0
  8 10  2  0
  9 11  2  0
 10 11  1  0
M  END
>  <PUBCHEM_COMPOUND_CID>  (1) 
547

>  <PUBCHEM_COMPOUND_CANONICALIZED>  (1) 
1

>  <PUBCHEM_CACTVS_COMPLEXITY>  (1) 
168

>  <PUBCHEM_CACTVS_HBOND_ACCEPTOR>  (1) 
4

>  <PUBCHEM_CACTVS_HBOND_DONOR>  (1) 
3

>  <PUBCHEM_CACTVS_ROTATABLE_BOND>  (1) 
2

>  <PUBCHEM_CACTVS_SUBSKEYS>  (1) 
AAADccBwOAAAAAAAAAAAAAAAAAAAAAAAAAAwAAAAAAAAAAABAAAAGgAACAAADASAmAAwDoAAAgCIAiDSCAACAAAgIAAIiAEGiIgJJjKCFRKAcAEkwBEJmAeI7LTOIAABAAAAQABAAAIAAACAAAAAAAAAAA==

>  <PUBCHEM_IUPAC_OPENEYE_NAME>  (1) 
2-(3,4-dihydroxyphenyl)acetic acid

>  <PUBCHEM_IUPAC_CAS_NAME>  (1) 
2-(3,4-dihydroxyphenyl)acetic acid

>  <PUBCHEM_IUPAC_NAME_MARKUP>  (1) 
2-(3,4-dihydroxyphenyl)acetic acid

>  <PUBCHEM_IUPAC_NAME>  (1) 
2-(3,4-dihydroxyphenyl)acetic acid

>  <PUBCHEM_IUPAC_SYSTEMATIC_NAME>  (1) 
2-[3,4-bis(oxidanyl)phenyl]ethanoic acid

>  <PUBCHEM_IUPAC_TRADITIONAL_NAME>  (1) 
2-(3,4-dihydroxyphenyl)acetic acid

>  <PUBCHEM_IUPAC_INCHI>  (1) 
InChI=1S/C8H8O4/c9-6-2-1-5(3-7(6)10)4-8(11)12/h1-3,9-10H,4H2,(H,11,12)

>  <PUBCHEM_IUPAC_INCHIKEY>  (1) 
CFFZDZCDUFSOFZ-UHFFFAOYSA-N

>  <PUBCHEM_XLOGP3>  (1) 
0.5

>  <PUBCHEM_EXACT_MASS>  (1) 
168.042259

>  <PUBCHEM_MOLECULAR_FORMULA>  (1) 
C8H8O4

>  <PUBCHEM_MOLECULAR_WEIGHT>  (1) 
168.15

>  <PUBCHEM_OPENEYE_CAN_SMILES>  (1) 
C1=CC(=C(C=C1CC(=O)O)O)O

>  <PUBCHEM_OPENEYE_ISO_SMILES>  (1) 
C1=CC(=C(C=C1CC(=O)O)O)O

>  <PUBCHEM_CACTVS_TPSA>  (1) 
77.8

>  <PUBCHEM_MONOISOTOPIC_WEIGHT>  (1) 
168.042259

>  <PUBCHEM_TOTAL_CHARGE>  (1) 
0

>  <PUBCHEM_HEAVY_ATOM_COUNT>  (1) 
12

>  <PUBCHEM_ATOM_DEF_STEREO_COUNT>  (1) 
0

>  <PUBCHEM_ATOM_UDEF_STEREO_COUNT>  (1) 
0

>  <PUBCHEM_BOND_DEF_STEREO_COUNT>  (1) 
0

>  <PUBCHEM_BOND_UDEF_STEREO_COUNT>  (1) 
0

>  <PUBCHEM_ISOTOPIC_ATOM_COUNT>  (1) 
0

>  <PUBCHEM_COMPONENT_COUNT>  (1) 
1

>  <PUBCHEM_CACTVS_TAUTO_COUNT>  (1) 
-1

>  <PUBCHEM_COORDINATE_TYPE>  (1) 
1
5
255

>  <PUBCHEM_BONDANNOTATIONS>  (1) 
10  11  8
5  7  8
5  8  8
7  9  8
8  10  8
9  11  8

$$$$
