548
     RDKit          2D

 14 13  0  0  0  0  0  0  0  0999 V2000
    5.2256    1.1454    0.0000 O   0  0  0  0  0  0  0  0  0  0  0  0
    0.2353   -2.1858    0.0000 O   0  0  0  0  0  0  0  0  0  0  0  0
    4.0754   -1.1842    0.0000 O   0  0  0  0  0  0  0  0  0  0  0  0
   -2.6496    2.1360    0.0000 O   0  0  0  0  0  0  0  0  0  0  0  0
   -5.1448    0.4704    0.0000 O   0  0  0  0  0  0  0  0  0  0  0  0
   -3.7023   -1.6905    0.0000 O   0  0  0  0  0  0  0  0  0  0  0  0
    2.6330    0.9767    0.0000 C   0  0  0  0  0  0  0  0  0  0  0  0
    1.3854    0.1439    0.0000 C   0  0  0  0  0  0  0  0  0  0  0  0
    0.0404    0.8079    0.0000 C   0  0  0  0  0  0  0  0  0  0  0  0
    3.9780    0.3126    0.0000 C   0  0  0  0  0  0  0  0  0  0  0  0
    1.4828   -1.3530    0.0000 C   0  0  0  0  0  0  0  0  0  0  0  0
   -1.2072   -0.0249    0.0000 C   0  0  0  0  0  0  0  0  0  0  0  0
   -2.5522    0.6391    0.0000 C   0  0  0  0  0  0  0  0  0  0  0  0
   -3.7998   -0.1937    0.0000 C   0  0  0  0  0  0  0  0  0  0  0  0
  1 10  1  0
  2 11  1  0
  3 10  2  0
  4 13  2  0
  5 14  1  0
  6 14  2  0
  7  8  1  0
  7 10  1  0
  8  9  1  0
  8 11  2  3
  9 12  2  3
 12 13  1  0
 13 14  1  0
M  END
>  <PUBCHEM_COMPOUND_CID>  (1) 
548

>  <PUBCHEM_COMPOUND_CANONICALIZED>  (1) 
1

>  <PUBCHEM_CACTVS_COMPLEXITY>  (1) 
312

>  <PUBCHEM_CACTVS_HBOND_ACCEPTOR>  (1) 
6

>  <PUBCHEM_CACTVS_HBOND_DONOR>  (1) 
3

>  <PUBCHEM_CACTVS_ROTATABLE_BOND>  (1) 
5

>  <PUBCHEM_CACTVS_SUBSKEYS>  (1) 
AAADccBwOAAAAAAAAAAAAAAAAAAAAAAAAAAAAAAAAAAAAAAAAAAAGgAACAAADASggAIACAAAAgCIAqDSCAIAAAAgIAAICAFAAEgIEBAAAQAAQAAEwAAIgYIAAAAAAAAAAAAAAAAAAAAAAAAAAAAAAAAAAA==

>  <PUBCHEM_IUPAC_OPENEYE_NAME>  (1) 
5-(hydroxymethylene)-2-oxo-hept-3-enedioic acid

>  <PUBCHEM_IUPAC_CAS_NAME>  (1) 
5-(hydroxymethylidene)-2-oxo-3-heptenedioic acid

>  <PUBCHEM_IUPAC_NAME_MARKUP>  (1) 
5-(hydroxymethylidene)-2-oxohept-3-enedioic acid

>  <PUBCHEM_IUPAC_NAME>  (1) 
5-(hydroxymethylidene)-2-oxohept-3-enedioic acid

>  <PUBCHEM_IUPAC_SYSTEMATIC_NAME>  (1) 
2-oxidanylidene-5-(oxidanylmethylidene)hept-3-enedioic acid

>  <PUBCHEM_IUPAC_TRADITIONAL_NAME>  (1) 
5-(hydroxymethylene)-2-keto-hept-3-enedioic acid

>  <PUBCHEM_IUPAC_INCHI>  (1) 
InChI=1S/C8H8O6/c9-4-5(3-7(11)12)1-2-6(10)8(13)14/h1-2,4,9H,3H2,(H,11,12)(H,13,14)

>  <PUBCHEM_IUPAC_INCHIKEY>  (1) 
JCYNPXMAUUAOMA-UHFFFAOYSA-N

>  <PUBCHEM_XLOGP3_AA>  (1) 
-0.1

>  <PUBCHEM_EXACT_MASS>  (1) 
200.032088

>  <PUBCHEM_MOLECULAR_FORMULA>  (1) 
C8H8O6

>  <PUBCHEM_MOLECULAR_WEIGHT>  (1) 
200.14

>  <PUBCHEM_OPENEYE_CAN_SMILES>  (1) 
C(C(=CO)C=CC(=O)C(=O)O)C(=O)O

>  <PUBCHEM_OPENEYE_ISO_SMILES>  (1) 
C(C(=CO)C=CC(=O)C(=O)O)C(=O)O

>  <PUBCHEM_CACTVS_TPSA>  (1) 
112

>  <PUBCHEM_MONOISOTOPIC_WEIGHT>  (1) 
200.032088

>  <PUBCHEM_TOTAL_CHARGE>  (1) 
0

>  <PUBCHEM_HEAVY_ATOM_COUNT>  (1) 
14

>  <PUBCHEM_ATOM_DEF_STEREO_COUNT>  (1) 
0

>  <PUBCHEM_ATOM_UDEF_STEREO_COUNT>  (1) 
0

>  <PUBCHEM_BOND_DEF_STEREO_COUNT>  (1) 
0

>  <PUBCHEM_BOND_UDEF_STEREO_COUNT>  (1) 
2

>  <PUBCHEM_ISOTOPIC_ATOM_COUNT>  (1) 
0

>  <PUBCHEM_COMPONENT_COUNT>  (1) 
1

>  <PUBCHEM_CACTVS_TAUTO_COUNT>  (1) 
-1

>  <PUBCHEM_COORDINATE_TYPE>  (1) 
1
5
255

>  <PUBCHEM_BONDANNOTATIONS>  (1) 
8  11  1
9  12  1

$$$$
