55
     RDKit          2D

 48 48  0  0  0  0  0  0  0  0999 V2000
  -15.6843   -2.0842    0.0000 O   0  0  0  0  0  0  0  0  0  0  0  0
  -18.6833   -2.0065    0.0000 O   0  0  0  0  0  0  0  0  0  0  0  0
    2.3770    0.0467    0.0000 C   0  0  0  0  0  0  0  0  0  0  0  0
   -2.1215    0.1633    0.0000 C   0  0  0  0  0  0  0  0  0  0  0  0
    3.8765    0.0078    0.0000 C   0  0  0  0  0  0  0  0  0  0  0  0
    6.8755   -0.0699    0.0000 C   0  0  0  0  0  0  0  0  0  0  0  0
   -0.6220    0.1244    0.0000 C   0  0  0  0  0  0  0  0  0  0  0  0
    1.6609    1.3647    0.0000 C   0  0  0  0  0  0  0  0  0  0  0  0
    8.3750   -0.1088    0.0000 C   0  0  0  0  0  0  0  0  0  0  0  0
    6.0921   -1.3491    0.0000 C   0  0  0  0  0  0  0  0  0  0  0  0
   -6.6200    0.2799    0.0000 C   0  0  0  0  0  0  0  0  0  0  0  0
   -2.9049   -1.1159    0.0000 C   0  0  0  0  0  0  0  0  0  0  0  0
   -5.1205    0.2410    0.0000 C   0  0  0  0  0  0  0  0  0  0  0  0
   11.3740   -0.1865    0.0000 C   0  0  0  0  0  0  0  0  0  0  0  0
    0.1614    1.4036    0.0000 C   0  0  0  0  0  0  0  0  0  0  0  0
    4.5926   -1.3102    0.0000 C   0  0  0  0  0  0  0  0  0  0  0  0
   10.6579    1.1316    0.0000 C   0  0  0  0  0  0  0  0  0  0  0  0
   -7.3361    1.5979    0.0000 C   0  0  0  0  0  0  0  0  0  0  0  0
   -4.4044   -1.0770    0.0000 C   0  0  0  0  0  0  0  0  0  0  0  0
   12.8735   -0.2253    0.0000 C   0  0  0  0  0  0  0  0  0  0  0  0
    9.1584    1.1704    0.0000 C   0  0  0  0  0  0  0  0  0  0  0  0
   -9.6190    0.3576    0.0000 C   0  0  0  0  0  0  0  0  0  0  0  0
  -11.1185    0.3964    0.0000 C   0  0  0  0  0  0  0  0  0  0  0  0
   -8.8356    1.6367    0.0000 C   0  0  0  0  0  0  0  0  0  0  0  0
   13.5896   -1.5434    0.0000 C   0  0  0  0  0  0  0  0  0  0  0  0
    2.4443    2.6439    0.0000 C   0  0  0  0  0  0  0  0  0  0  0  0
   15.0891   -1.5822    0.0000 C   0  0  0  0  0  0  0  0  0  0  0  0
    6.8082   -2.6671    0.0000 C   0  0  0  0  0  0  0  0  0  0  0  0
   -2.1888   -2.4339    0.0000 C   0  0  0  0  0  0  0  0  0  0  0  0
   15.8725   -0.3031    0.0000 C   0  0  0  0  0  0  0  0  0  0  0  0
  -11.9019   -0.8827    0.0000 C   0  0  0  0  0  0  0  0  0  0  0  0
   11.4413    2.4107    0.0000 C   0  0  0  0  0  0  0  0  0  0  0  0
   -6.5527    2.8771    0.0000 C   0  0  0  0  0  0  0  0  0  0  0  0
   17.3720   -0.3419    0.0000 C   0  0  0  0  0  0  0  0  0  0  0  0
  -13.4014   -0.8439    0.0000 C   0  0  0  0  0  0  0  0  0  0  0  0
   15.8052   -2.9003    0.0000 C   0  0  0  0  0  0  0  0  0  0  0  0
  -14.1175    0.4742    0.0000 C   0  0  0  0  0  0  0  0  0  0  0  0
  -11.1858   -2.2008    0.0000 C   0  0  0  0  0  0  0  0  0  0  0  0
   18.1554    0.9372    0.0000 C   0  0  0  0  0  0  0  0  0  0  0  0
  -15.6170    0.5130    0.0000 C   0  0  0  0  0  0  0  0  0  0  0  0
   19.6549    0.8984    0.0000 C   0  0  0  0  0  0  0  0  0  0  0  0
  -16.4004   -0.7662    0.0000 C   0  0  0  0  0  0  0  0  0  0  0  0
  -16.3330    1.8311    0.0000 C   0  0  0  0  0  0  0  0  0  0  0  0
   20.4383    2.1776    0.0000 C   0  0  0  0  0  0  0  0  0  0  0  0
   20.3710   -0.4196    0.0000 C   0  0  0  0  0  0  0  0  0  0  0  0
  -17.8999   -0.7273    0.0000 C   0  0  0  0  0  0  0  0  0  0  0  0
  -17.8325    1.8699    0.0000 C   0  0  0  0  0  0  0  0  0  0  0  0
  -18.6159    0.5907    0.0000 C   0  0  0  0  0  0  0  0  0  0  0  0
  1 42  1  0
  2 46  1  0
  3  5  1  0
  3  8  1  0
  4  7  1  0
  4 12  1  0
  5 16  1  0
  6  9  1  0
  6 10  1  0
  7 15  1  0
  8 15  2  3
  8 26  1  0
  9 21  1  0
 10 16  2  3
 10 28  1  0
 11 13  1  0
 11 18  1  0
 12 19  2  3
 12 29  1  0
 13 19  1  0
 14 17  1  0
 14 20  1  0
 17 21  2  3
 17 32  1  0
 18 24  2  3
 18 33  1  0
 20 25  1  0
 22 23  1  0
 22 24  1  0
 23 31  1  0
 25 27  2  3
 27 30  1  0
 27 36  1  0
 30 34  1  0
 31 35  2  3
 31 38  1  0
 34 39  1  0
 35 37  1  0
 37 40  1  0
 39 41  2  3
 40 42  2  0
 40 43  1  0
 41 44  1  0
 41 45  1  0
 42 46  1  0
 43 47  2  0
 46 48  2  0
 47 48  1  0
M  END
>  <PUBCHEM_COMPOUND_CID>  (1) 
55

>  <PUBCHEM_COMPOUND_CANONICALIZED>  (1) 
1

>  <PUBCHEM_CACTVS_COMPLEXITY>  (1) 
1140

>  <PUBCHEM_CACTVS_HBOND_ACCEPTOR>  (1) 
2

>  <PUBCHEM_CACTVS_HBOND_DONOR>  (1) 
2

>  <PUBCHEM_CACTVS_ROTATABLE_BOND>  (1) 
23

>  <PUBCHEM_CACTVS_SUBSKEYS>  (1) 
AAADcfB8MAAAAAAAAAAAAAAAAAAAAAAAAAAwAAAAAAAAAAABAAAAGgAACAAADASAmAAyBoAAAgCAAiBCAAACAAAgIAAIiAAGiIgJJiKCERKAcAEkwBEJmAeAwLAOAAABAAAIQAAAAAIAABCAAAAAAAAAAA==

>  <PUBCHEM_IUPAC_OPENEYE_NAME>  (1) 
3-(3,7,11,15,19,23,27,31-octamethyldotriaconta-2,6,10,14,18,22,26,30-octaenyl)benzene-1,2-diol

>  <PUBCHEM_IUPAC_CAS_NAME>  (1) 
3-(3,7,11,15,19,23,27,31-octamethyldotriaconta-2,6,10,14,18,22,26,30-octaenyl)benzene-1,2-diol

>  <PUBCHEM_IUPAC_NAME_MARKUP>  (1) 
3-(3,7,11,15,19,23,27,31-octamethyldotriaconta-2,6,10,14,18,22,26,30-octaenyl)benzene-1,2-diol

>  <PUBCHEM_IUPAC_NAME>  (1) 
3-(3,7,11,15,19,23,27,31-octamethyldotriaconta-2,6,10,14,18,22,26,30-octaenyl)benzene-1,2-diol

>  <PUBCHEM_IUPAC_SYSTEMATIC_NAME>  (1) 
3-(3,7,11,15,19,23,27,31-octamethyldotriaconta-2,6,10,14,18,22,26,30-octaenyl)benzene-1,2-diol

>  <PUBCHEM_IUPAC_TRADITIONAL_NAME>  (1) 
3-(3,7,11,15,19,23,27,31-octamethyldotriaconta-2,6,10,14,18,22,26,30-octaenyl)pyrocatechol

>  <PUBCHEM_IUPAC_INCHI>  (1) 
InChI=1S/C46H70O2/c1-36(2)18-10-19-37(3)20-11-21-38(4)22-12-23-39(5)24-13-25-40(6)26-14-27-41(7)28-15-29-42(8)30-16-31-43(9)34-35-44-32-17-33-45(47)46(44)48/h17-18,20,22,24,26,28,30,32-34,47-48H,10-16,19,21,23,25,27,29,31,35H2,1-9H3

>  <PUBCHEM_IUPAC_INCHIKEY>  (1) 
YNPGYMZVNLIZLD-UHFFFAOYSA-N

>  <PUBCHEM_XLOGP3_AA>  (1) 
16.1

>  <PUBCHEM_EXACT_MASS>  (1) 
654.537581

>  <PUBCHEM_MOLECULAR_FORMULA>  (1) 
C46H70O2

>  <PUBCHEM_MOLECULAR_WEIGHT>  (1) 
655

>  <PUBCHEM_OPENEYE_CAN_SMILES>  (1) 
CC(=CCCC(=CCCC(=CCCC(=CCCC(=CCCC(=CCCC(=CCCC(=CCC1=C(C(=CC=C1)O)O)C)C)C)C)C)C)C)C

>  <PUBCHEM_OPENEYE_ISO_SMILES>  (1) 
CC(=CCCC(=CCCC(=CCCC(=CCCC(=CCCC(=CCCC(=CCCC(=CCC1=C(C(=CC=C1)O)O)C)C)C)C)C)C)C)C

>  <PUBCHEM_CACTVS_TPSA>  (1) 
40.5

>  <PUBCHEM_MONOISOTOPIC_WEIGHT>  (1) 
654.537581

>  <PUBCHEM_TOTAL_CHARGE>  (1) 
0

>  <PUBCHEM_HEAVY_ATOM_COUNT>  (1) 
48

>  <PUBCHEM_ATOM_DEF_STEREO_COUNT>  (1) 
0

>  <PUBCHEM_ATOM_UDEF_STEREO_COUNT>  (1) 
0

>  <PUBCHEM_BOND_DEF_STEREO_COUNT>  (1) 
0

>  <PUBCHEM_BOND_UDEF_STEREO_COUNT>  (1) 
7

>  <PUBCHEM_ISOTOPIC_ATOM_COUNT>  (1) 
0

>  <PUBCHEM_COMPONENT_COUNT>  (1) 
1

>  <PUBCHEM_CACTVS_TAUTO_COUNT>  (1) 
-1

>  <PUBCHEM_COORDINATE_TYPE>  (1) 
1
5
255

>  <PUBCHEM_BONDANNOTATIONS>  (1) 
10  16  1
12  19  1
17  21  1
18  24  1
25  27  1
31  35  1
40  42  8
40  43  8
42  46  8
43  47  8
46  48  8
47  48  8
8  15  1

$$$$
