550
     RDKit          2D

 15 14  0  0  1  0  0  0  0  0999 V2000
    0.1338   -2.0475    0.0000 O   0  0  0  0  0  0  0  0  0  0  0  0
    4.9781    1.4927    0.0000 O   0  0  0  0  0  0  0  0  0  0  0  0
    2.7169   -1.7687    0.0000 O   0  0  0  0  0  0  0  0  0  0  0  0
    3.9280   -0.8837    0.0000 O   0  0  0  0  0  0  0  0  0  0  0  0
   -2.9320    2.1478    0.0000 O   0  0  0  0  0  0  0  0  0  0  0  0
   -5.3542    0.3777    0.0000 O   0  0  0  0  0  0  0  0  0  0  0  0
   -3.8213   -1.7199    0.0000 O   0  0  0  0  0  0  0  0  0  0  0  0
    1.1840    0.3289    0.0000 C   0  0  0  0  0  0  0  0  0  0  0  0
    2.3951    1.2140    0.0000 C   0  0  0  0  0  0  0  0  0  0  0  0
   -0.1880    0.9352    0.0000 C   0  0  0  0  0  0  0  0  0  0  0  0
    1.3449   -1.1624    0.0000 C   0  0  0  0  0  0  0  0  0  0  0  0
    3.7671    0.6077    0.0000 C   0  0  0  0  0  0  0  0  0  0  0  0
   -1.3991    0.0502    0.0000 C   0  0  0  0  0  0  0  0  0  0  0  0
   -2.7711    0.6565    0.0000 C   0  0  0  0  0  0  0  0  0  0  0  0
   -3.9822   -0.2286    0.0000 C   0  0  0  0  0  0  0  0  0  0  0  0
  1 11  1  0
  2 12  1  0
  3 11  2  0
  4 12  2  0
  5 14  2  0
  6 15  1  0
  7 15  2  0
  8  9  1  0
  8 10  1  0
  8 11  1  0
  9 12  1  0
 10 13  2  3
 13 14  1  0
 14 15  1  0
M  END
>  <PUBCHEM_COMPOUND_CID>  (1) 
550

>  <PUBCHEM_COMPOUND_CANONICALIZED>  (1) 
1

>  <PUBCHEM_CACTVS_COMPLEXITY>  (1) 
328

>  <PUBCHEM_CACTVS_HBOND_ACCEPTOR>  (1) 
7

>  <PUBCHEM_CACTVS_HBOND_DONOR>  (1) 
3

>  <PUBCHEM_CACTVS_ROTATABLE_BOND>  (1) 
6

>  <PUBCHEM_CACTVS_SUBSKEYS>  (1) 
AAADccBwOAAAAAAAAAAAAAAAAAAAAAAAAAAAAAAAAAAAAAAAAAAAGgAACAAADQSAgAAACAAAAgCIAKDSCAIAAAAgAAAICAFAAEgAABAAAQAAQAAEwAAIAYJDAAAIAAAAAAAAAAAAAAAAAAAAAAAAAAAAAA==

>  <PUBCHEM_IUPAC_OPENEYE_NAME>  (1) 
5-oxopent-3-ene-1,2,5-tricarboxylic acid

>  <PUBCHEM_IUPAC_CAS_NAME>  (1) 
5-oxo-3-pentene-1,2,5-tricarboxylic acid

>  <PUBCHEM_IUPAC_NAME_MARKUP>  (1) 
5-oxopent-3-ene-1,2,5-tricarboxylic acid

>  <PUBCHEM_IUPAC_NAME>  (1) 
5-oxopent-3-ene-1,2,5-tricarboxylic acid

>  <PUBCHEM_IUPAC_SYSTEMATIC_NAME>  (1) 
5-oxidanylidenepent-3-ene-1,2,5-tricarboxylic acid

>  <PUBCHEM_IUPAC_TRADITIONAL_NAME>  (1) 
5-ketopent-3-ene-1,2,5-tricarboxylic acid

>  <PUBCHEM_IUPAC_INCHI>  (1) 
InChI=1S/C8H8O7/c9-5(8(14)15)2-1-4(7(12)13)3-6(10)11/h1-2,4H,3H2,(H,10,11)(H,12,13)(H,14,15)

>  <PUBCHEM_IUPAC_INCHIKEY>  (1) 
WHGVLEMQINVDLH-UHFFFAOYSA-N

>  <PUBCHEM_XLOGP3_AA>  (1) 
-0.9

>  <PUBCHEM_EXACT_MASS>  (1) 
216.027003

>  <PUBCHEM_MOLECULAR_FORMULA>  (1) 
C8H8O7

>  <PUBCHEM_MOLECULAR_WEIGHT>  (1) 
216.14

>  <PUBCHEM_OPENEYE_CAN_SMILES>  (1) 
C(C(C=CC(=O)C(=O)O)C(=O)O)C(=O)O

>  <PUBCHEM_OPENEYE_ISO_SMILES>  (1) 
C(C(C=CC(=O)C(=O)O)C(=O)O)C(=O)O

>  <PUBCHEM_CACTVS_TPSA>  (1) 
129

>  <PUBCHEM_MONOISOTOPIC_WEIGHT>  (1) 
216.027003

>  <PUBCHEM_TOTAL_CHARGE>  (1) 
0

>  <PUBCHEM_HEAVY_ATOM_COUNT>  (1) 
15

>  <PUBCHEM_ATOM_DEF_STEREO_COUNT>  (1) 
0

>  <PUBCHEM_ATOM_UDEF_STEREO_COUNT>  (1) 
1

>  <PUBCHEM_BOND_DEF_STEREO_COUNT>  (1) 
0

>  <PUBCHEM_BOND_UDEF_STEREO_COUNT>  (1) 
1

>  <PUBCHEM_ISOTOPIC_ATOM_COUNT>  (1) 
0

>  <PUBCHEM_COMPONENT_COUNT>  (1) 
1

>  <PUBCHEM_CACTVS_TAUTO_COUNT>  (1) 
-1

>  <PUBCHEM_COORDINATE_TYPE>  (1) 
1
5
255

>  <PUBCHEM_BONDANNOTATIONS>  (1) 
10  13  1
8  9  3

$$$$
