553
     RDKit          2D

 13 12  0  0  1  0  0  0  0  0999 V2000
   -0.1276   -1.8526    0.0000 O   0  0  0  0  0  0  0  0  0  0  0  0
    2.4685   -1.7511    0.0000 O   0  0  0  0  0  0  0  0  0  0  0  0
   -5.3784   -0.5566    0.0000 O   0  0  0  0  0  0  0  0  0  0  0  0
   -4.1682    1.7424    0.0000 O   0  0  0  0  0  0  0  0  0  0  0  0
    5.0060   -0.1508    0.0000 O   0  0  0  0  0  0  0  0  0  0  0  0
    3.6201    2.0468    0.0000 O   0  0  0  0  0  0  0  0  0  0  0  0
   -0.1862   -0.3537    0.0000 C   0  0  0  0  0  0  0  0  0  0  0  0
   -1.5135    0.3450    0.0000 C   0  0  0  0  0  0  0  0  0  0  0  0
    1.0826    0.4465    0.0000 C   0  0  0  0  0  0  0  0  0  0  0  0
   -2.7823   -0.4552    0.0000 C   0  0  0  0  0  0  0  0  0  0  0  0
    2.4099   -0.2522    0.0000 C   0  0  0  0  0  0  0  0  0  0  0  0
   -4.1096    0.2435    0.0000 C   0  0  0  0  0  0  0  0  0  0  0  0
    3.6787    0.5479    0.0000 C   0  0  0  0  0  0  0  0  0  0  0  0
  1  7  1  0
  2 11  2  0
  3 12  1  0
  4 12  2  0
  5 13  1  0
  6 13  2  0
  7  8  1  0
  7  9  1  0
  8 10  1  0
  9 11  1  0
 10 12  1  0
 11 13  1  0
M  END
>  <PUBCHEM_COMPOUND_CID>  (1) 
553

>  <PUBCHEM_COMPOUND_CANONICALIZED>  (1) 
1

>  <PUBCHEM_CACTVS_COMPLEXITY>  (1) 
221

>  <PUBCHEM_CACTVS_HBOND_ACCEPTOR>  (1) 
6

>  <PUBCHEM_CACTVS_HBOND_DONOR>  (1) 
3

>  <PUBCHEM_CACTVS_ROTATABLE_BOND>  (1) 
6

>  <PUBCHEM_CACTVS_SUBSKEYS>  (1) 
AAADccBgOAAAAAAAAAAAAAAAAAAAAAAAAAAAAAAAAAAAAAAAAAAAGgAACAAACBSggAIACAAAAgAIAICQCAIAAAAAAAAAAAFAAAAAEBYAAAAAQAAEIAAAAAHKyCCAAAAAAAAAAAAAAAAAAAAAAAAAAAAAAA==

>  <PUBCHEM_IUPAC_OPENEYE_NAME>  (1) 
4-hydroxy-2-oxo-heptanedioic acid

>  <PUBCHEM_IUPAC_CAS_NAME>  (1) 
4-hydroxy-2-oxoheptanedioic acid

>  <PUBCHEM_IUPAC_NAME_MARKUP>  (1) 
4-hydroxy-2-oxoheptanedioic acid

>  <PUBCHEM_IUPAC_NAME>  (1) 
4-hydroxy-2-oxoheptanedioic acid

>  <PUBCHEM_IUPAC_SYSTEMATIC_NAME>  (1) 
4-oxidanyl-2-oxidanylidene-heptanedioic acid

>  <PUBCHEM_IUPAC_TRADITIONAL_NAME>  (1) 
4-hydroxy-2-keto-pimelic acid

>  <PUBCHEM_IUPAC_INCHI>  (1) 
InChI=1S/C7H10O6/c8-4(1-2-6(10)11)3-5(9)7(12)13/h4,8H,1-3H2,(H,10,11)(H,12,13)

>  <PUBCHEM_IUPAC_INCHIKEY>  (1) 
HNOAJOYERZTSNK-UHFFFAOYSA-N

>  <PUBCHEM_XLOGP3_AA>  (1) 
-1.2

>  <PUBCHEM_EXACT_MASS>  (1) 
190.047738

>  <PUBCHEM_MOLECULAR_FORMULA>  (1) 
C7H10O6

>  <PUBCHEM_MOLECULAR_WEIGHT>  (1) 
190.15

>  <PUBCHEM_OPENEYE_CAN_SMILES>  (1) 
C(CC(=O)O)C(CC(=O)C(=O)O)O

>  <PUBCHEM_OPENEYE_ISO_SMILES>  (1) 
C(CC(=O)O)C(CC(=O)C(=O)O)O

>  <PUBCHEM_CACTVS_TPSA>  (1) 
112

>  <PUBCHEM_MONOISOTOPIC_WEIGHT>  (1) 
190.047738

>  <PUBCHEM_TOTAL_CHARGE>  (1) 
0

>  <PUBCHEM_HEAVY_ATOM_COUNT>  (1) 
13

>  <PUBCHEM_ATOM_DEF_STEREO_COUNT>  (1) 
0

>  <PUBCHEM_ATOM_UDEF_STEREO_COUNT>  (1) 
1

>  <PUBCHEM_BOND_DEF_STEREO_COUNT>  (1) 
0

>  <PUBCHEM_BOND_UDEF_STEREO_COUNT>  (1) 
0

>  <PUBCHEM_ISOTOPIC_ATOM_COUNT>  (1) 
0

>  <PUBCHEM_COMPONENT_COUNT>  (1) 
1

>  <PUBCHEM_CACTVS_TAUTO_COUNT>  (1) 
-1

>  <PUBCHEM_COORDINATE_TYPE>  (1) 
1
5
255

>  <PUBCHEM_BONDANNOTATIONS>  (1) 
7  1  3

$$$$
