556
     RDKit          2D

 16 15  0  0  1  0  0  0  0  0999 V2000
   -0.0990    2.7603    0.0000 O   0  0  0  0  0  0  0  0  0  0  0  0
    1.0814    1.8346    0.0000 O   0  0  0  0  0  0  0  0  0  0  0  0
   -2.6711    3.1266    0.0000 O   0  0  0  0  0  0  0  0  0  0  0  0
   -4.9088   -3.3728    0.0000 O   0  0  0  0  0  0  0  0  0  0  0  0
    6.0141   -0.3830    0.0000 O   0  0  0  0  0  0  0  0  0  0  0  0
    4.4108   -2.4274    0.0000 O   0  0  0  0  0  0  0  0  0  0  0  0
   -0.5219   -0.2098    0.0000 N   0  0  0  0  0  0  0  0  0  0  0  0
   -1.7022    0.7159    0.0000 C   0  0  0  0  0  0  0  0  0  0  0  0
   -3.0941    0.1565    0.0000 C   0  0  0  0  0  0  0  0  0  0  0  0
   -3.3055   -1.3285    0.0000 C   0  0  0  0  0  0  0  0  0  0  0  0
    2.0502   -0.5761    0.0000 C   0  0  0  0  0  0  0  0  0  0  0  0
    0.8699    0.3496    0.0000 C   0  0  0  0  0  0  0  0  0  0  0  0
   -1.4908    2.2009    0.0000 C   0  0  0  0  0  0  0  0  0  0  0  0
    3.4420   -0.0167    0.0000 C   0  0  0  0  0  0  0  0  0  0  0  0
   -4.6973   -1.8878    0.0000 C   0  0  0  0  0  0  0  0  0  0  0  0
    4.6223   -0.9424    0.0000 C   0  0  0  0  0  0  0  0  0  0  0  0
  1 13  1  0
  2 12  2  0
  3 13  2  0
  4 15  2  0
  5 16  1  0
  6 16  2  0
  7  8  1  0
  7 12  1  0
  8  9  1  0
  8 13  1  0
  9 10  1  0
 10 15  1  0
 11 12  1  0
 11 14  1  0
 14 16  1  0
M  END
>  <PUBCHEM_COMPOUND_CID>  (1) 
556

>  <PUBCHEM_COMPOUND_CANONICALIZED>  (1) 
1

>  <PUBCHEM_CACTVS_COMPLEXITY>  (1) 
288

>  <PUBCHEM_CACTVS_HBOND_ACCEPTOR>  (1) 
6

>  <PUBCHEM_CACTVS_HBOND_DONOR>  (1) 
3

>  <PUBCHEM_CACTVS_ROTATABLE_BOND>  (1) 
8

>  <PUBCHEM_CACTVS_SUBSKEYS>  (1) 
AAADccByOAAAAAAAAAAAAAAAAAAAAAAAAAAAAAAAAAAAAAAAAAAAHgAQCAAACCjhgAYACALAAgAIAAmQmAAAAAAAAAAAAIGIAAACABIAgCAEQAAEFgCQAACvBgAAAAAAAAAAAAAAAAAAAAAAAAAAAAAAAA==

>  <PUBCHEM_IUPAC_OPENEYE_NAME>  (1) 
2-(3-carboxypropanoylamino)-5-oxo-pentanoic acid

>  <PUBCHEM_IUPAC_CAS_NAME>  (1) 
2-[(3-carboxy-1-oxopropyl)amino]-5-oxopentanoic acid

>  <PUBCHEM_IUPAC_NAME_MARKUP>  (1) 
2-(3-carboxypropanoylamino)-5-oxopentanoic acid

>  <PUBCHEM_IUPAC_NAME>  (1) 
2-(3-carboxypropanoylamino)-5-oxopentanoic acid

>  <PUBCHEM_IUPAC_SYSTEMATIC_NAME>  (1) 
5-oxidanylidene-2-[(4-oxidanyl-4-oxidanylidene-butanoyl)amino]pentanoic acid

>  <PUBCHEM_IUPAC_TRADITIONAL_NAME>  (1) 
2-(3-carboxypropanoylamino)-5-keto-valeric acid

>  <PUBCHEM_IUPAC_INCHI>  (1) 
InChI=1S/C9H13NO6/c11-5-1-2-6(9(15)16)10-7(12)3-4-8(13)14/h5-6H,1-4H2,(H,10,12)(H,13,14)(H,15,16)

>  <PUBCHEM_IUPAC_INCHIKEY>  (1) 
XTOKIEIBKARFSZ-UHFFFAOYSA-N

>  <PUBCHEM_XLOGP3_AA>  (1) 
-1.6

>  <PUBCHEM_EXACT_MASS>  (1) 
231.074287

>  <PUBCHEM_MOLECULAR_FORMULA>  (1) 
C9H13NO6

>  <PUBCHEM_MOLECULAR_WEIGHT>  (1) 
231.2

>  <PUBCHEM_OPENEYE_CAN_SMILES>  (1) 
C(CC(C(=O)O)NC(=O)CCC(=O)O)C=O

>  <PUBCHEM_OPENEYE_ISO_SMILES>  (1) 
C(CC(C(=O)O)NC(=O)CCC(=O)O)C=O

>  <PUBCHEM_CACTVS_TPSA>  (1) 
121

>  <PUBCHEM_MONOISOTOPIC_WEIGHT>  (1) 
231.074287

>  <PUBCHEM_TOTAL_CHARGE>  (1) 
0

>  <PUBCHEM_HEAVY_ATOM_COUNT>  (1) 
16

>  <PUBCHEM_ATOM_DEF_STEREO_COUNT>  (1) 
0

>  <PUBCHEM_ATOM_UDEF_STEREO_COUNT>  (1) 
1

>  <PUBCHEM_BOND_DEF_STEREO_COUNT>  (1) 
0

>  <PUBCHEM_BOND_UDEF_STEREO_COUNT>  (1) 
0

>  <PUBCHEM_ISOTOPIC_ATOM_COUNT>  (1) 
0

>  <PUBCHEM_COMPONENT_COUNT>  (1) 
1

>  <PUBCHEM_CACTVS_TAUTO_COUNT>  (1) 
-1

>  <PUBCHEM_COORDINATE_TYPE>  (1) 
1
5
255

>  <PUBCHEM_BONDANNOTATIONS>  (1) 
8  9  3

$$$$
