557
     RDKit          2D

  9  9  0  0  1  0  0  0  0  0999 V2000
    2.2531   -1.1851    0.0000 O   0  0  0  0  0  0  0  0  0  0  0  0
    2.4558    1.4051    0.0000 O   0  0  0  0  0  0  0  0  0  0  0  0
   -0.8624   -0.8555    0.0000 N   0  0  0  0  0  0  0  0  0  0  0  0
    0.1113    0.2855    0.0000 C   0  0  0  0  0  0  0  0  0  0  0  0
   -0.6730    1.5641    0.0000 C   0  0  0  0  0  0  0  0  0  0  0  0
   -2.1314    1.2133    0.0000 C   0  0  0  0  0  0  0  0  0  0  0  0
   -2.2485   -0.2821    0.0000 C   0  0  0  0  0  0  0  0  0  0  0  0
   -0.5115   -2.3139    0.0000 C   0  0  0  0  0  0  0  0  0  0  0  0
    1.6067    0.1685    0.0000 C   0  0  0  0  0  0  0  0  0  0  0  0
  1  9  1  0
  2  9  2  0
  3  4  1  0
  3  7  1  0
  3  8  1  0
  4  5  1  0
  4  9  1  0
  5  6  1  0
  6  7  1  0
M  END
>  <PUBCHEM_COMPOUND_CID>  (1) 
557

>  <PUBCHEM_COMPOUND_CANONICALIZED>  (1) 
1

>  <PUBCHEM_CACTVS_COMPLEXITY>  (1) 
124

>  <PUBCHEM_CACTVS_HBOND_ACCEPTOR>  (1) 
3

>  <PUBCHEM_CACTVS_HBOND_DONOR>  (1) 
1

>  <PUBCHEM_CACTVS_ROTATABLE_BOND>  (1) 
1

>  <PUBCHEM_CACTVS_SUBSKEYS>  (1) 
AAADccBiMAAAAAAAAAAAAAAAAAAAAWAAAAAAAAAAAAAAAAAAAAAAHgAACAAACCjBgAQCCAMAAgAIAACQCAAAAAAAAAAAAAGIAAACABIAgCAEQAAEAACQAACYEQIAAAAAAAAAAAAAAAAAAAAAAAAAAAAAAA==

>  <PUBCHEM_IUPAC_OPENEYE_NAME>  (1) 
1-methylpyrrolidine-2-carboxylic acid

>  <PUBCHEM_IUPAC_CAS_NAME>  (1) 
1-methyl-2-pyrrolidinecarboxylic acid

>  <PUBCHEM_IUPAC_NAME_MARKUP>  (1) 
1-methylpyrrolidine-2-carboxylic acid

>  <PUBCHEM_IUPAC_NAME>  (1) 
1-methylpyrrolidine-2-carboxylic acid

>  <PUBCHEM_IUPAC_SYSTEMATIC_NAME>  (1) 
1-methylpyrrolidine-2-carboxylic acid

>  <PUBCHEM_IUPAC_TRADITIONAL_NAME>  (1) 
hygric acid

>  <PUBCHEM_IUPAC_INCHI>  (1) 
InChI=1S/C6H11NO2/c1-7-4-2-3-5(7)6(8)9/h5H,2-4H2,1H3,(H,8,9)

>  <PUBCHEM_IUPAC_INCHIKEY>  (1) 
CWLQUGTUXBXTLF-UHFFFAOYSA-N

>  <PUBCHEM_XLOGP3_AA>  (1) 
-1.9

>  <PUBCHEM_EXACT_MASS>  (1) 
129.078979

>  <PUBCHEM_MOLECULAR_FORMULA>  (1) 
C6H11NO2

>  <PUBCHEM_MOLECULAR_WEIGHT>  (1) 
129.16

>  <PUBCHEM_OPENEYE_CAN_SMILES>  (1) 
CN1CCCC1C(=O)O

>  <PUBCHEM_OPENEYE_ISO_SMILES>  (1) 
CN1CCCC1C(=O)O

>  <PUBCHEM_CACTVS_TPSA>  (1) 
40.5

>  <PUBCHEM_MONOISOTOPIC_WEIGHT>  (1) 
129.078979

>  <PUBCHEM_TOTAL_CHARGE>  (1) 
0

>  <PUBCHEM_HEAVY_ATOM_COUNT>  (1) 
9

>  <PUBCHEM_ATOM_DEF_STEREO_COUNT>  (1) 
0

>  <PUBCHEM_ATOM_UDEF_STEREO_COUNT>  (1) 
1

>  <PUBCHEM_BOND_DEF_STEREO_COUNT>  (1) 
0

>  <PUBCHEM_BOND_UDEF_STEREO_COUNT>  (1) 
0

>  <PUBCHEM_ISOTOPIC_ATOM_COUNT>  (1) 
0

>  <PUBCHEM_COMPONENT_COUNT>  (1) 
1

>  <PUBCHEM_CACTVS_TAUTO_COUNT>  (1) 
-1

>  <PUBCHEM_COORDINATE_TYPE>  (1) 
1
5
255

>  <PUBCHEM_BONDANNOTATIONS>  (1) 
4  9  3

$$$$
