562
     RDKit          2D

 10  9  0  0  0  0  0  0  0  0999 V2000
   -3.4752    0.6047    0.0000 S   0  0  0  0  0  0  0  0  0  0  0  0
    0.2656   -1.8966    0.0000 O   0  0  0  0  0  0  0  0  0  0  0  0
    1.8084    1.7599    0.0000 O   0  0  0  0  0  0  0  0  0  0  0  0
    4.3022    0.0924    0.0000 O   0  0  0  0  0  0  0  0  0  0  0  0
   -0.8827    0.4340    0.0000 C   0  0  0  0  0  0  0  0  0  0  0  0
   -2.2282   -0.2290    0.0000 C   0  0  0  0  0  0  0  0  0  0  0  0
    0.3642   -0.3998    0.0000 C   0  0  0  0  0  0  0  0  0  0  0  0
    1.7097    0.2632    0.0000 C   0  0  0  0  0  0  0  0  0  0  0  0
   -4.8207   -0.0582    0.0000 C   0  0  0  0  0  0  0  0  0  0  0  0
    2.9567   -0.5706    0.0000 C   0  0  0  0  0  0  0  0  0  0  0  0
  1  6  1  0
  1  9  1  0
  2  7  2  0
  3  8  1  0
  4 10  1  0
  5  6  1  0
  5  7  1  0
  7  8  1  0
  8 10  2  3
M  END
>  <PUBCHEM_COMPOUND_CID>  (1) 
562

>  <PUBCHEM_COMPOUND_CANONICALIZED>  (1) 
1

>  <PUBCHEM_CACTVS_COMPLEXITY>  (1) 
142

>  <PUBCHEM_CACTVS_HBOND_ACCEPTOR>  (1) 
4

>  <PUBCHEM_CACTVS_HBOND_DONOR>  (1) 
2

>  <PUBCHEM_CACTVS_ROTATABLE_BOND>  (1) 
4

>  <PUBCHEM_CACTVS_SUBSKEYS>  (1) 
AAADccBgMABAAAAAAAAAAAAAAAAAAAAAAAAAAAAAAAAAAAAAAAAAGgQACAAACASkwAKCAAAAAgiIAIBSAAIAAAAgIBAAAAFAAEgAEAAgAAAAQAAEgAAAAIAAAAAAAAAAAAAAAAAAAAAAAAAAAAAAAAAAAA==

>  <PUBCHEM_IUPAC_OPENEYE_NAME>  (1) 
1,2-dihydroxy-5-methylsulfanyl-pent-1-en-3-one

>  <PUBCHEM_IUPAC_CAS_NAME>  (1) 
1,2-dihydroxy-5-(methylthio)-1-penten-3-one

>  <PUBCHEM_IUPAC_NAME_MARKUP>  (1) 
1,2-dihydroxy-5-methylsulfanylpent-1-en-3-one

>  <PUBCHEM_IUPAC_NAME>  (1) 
1,2-dihydroxy-5-methylsulfanylpent-1-en-3-one

>  <PUBCHEM_IUPAC_SYSTEMATIC_NAME>  (1) 
5-methylsulfanyl-1,2-bis(oxidanyl)pent-1-en-3-one

>  <PUBCHEM_IUPAC_TRADITIONAL_NAME>  (1) 
1,2-dihydroxy-5-(methylthio)pent-1-en-3-one

>  <PUBCHEM_IUPAC_INCHI>  (1) 
InChI=1S/C6H10O3S/c1-10-3-2-5(8)6(9)4-7/h4,7,9H,2-3H2,1H3

>  <PUBCHEM_IUPAC_INCHIKEY>  (1) 
CILXJJLQPTUUSS-UHFFFAOYSA-N

>  <PUBCHEM_XLOGP3_AA>  (1) 
0.8

>  <PUBCHEM_EXACT_MASS>  (1) 
162.035065

>  <PUBCHEM_MOLECULAR_FORMULA>  (1) 
C6H10O3S

>  <PUBCHEM_MOLECULAR_WEIGHT>  (1) 
162.21

>  <PUBCHEM_OPENEYE_CAN_SMILES>  (1) 
CSCCC(=O)C(=CO)O

>  <PUBCHEM_OPENEYE_ISO_SMILES>  (1) 
CSCCC(=O)C(=CO)O

>  <PUBCHEM_CACTVS_TPSA>  (1) 
82.8

>  <PUBCHEM_MONOISOTOPIC_WEIGHT>  (1) 
162.035065

>  <PUBCHEM_TOTAL_CHARGE>  (1) 
0

>  <PUBCHEM_HEAVY_ATOM_COUNT>  (1) 
10

>  <PUBCHEM_ATOM_DEF_STEREO_COUNT>  (1) 
0

>  <PUBCHEM_ATOM_UDEF_STEREO_COUNT>  (1) 
0

>  <PUBCHEM_BOND_DEF_STEREO_COUNT>  (1) 
0

>  <PUBCHEM_BOND_UDEF_STEREO_COUNT>  (1) 
1

>  <PUBCHEM_ISOTOPIC_ATOM_COUNT>  (1) 
0

>  <PUBCHEM_COMPONENT_COUNT>  (1) 
1

>  <PUBCHEM_CACTVS_TAUTO_COUNT>  (1) 
-1

>  <PUBCHEM_COORDINATE_TYPE>  (1) 
1
5
255

>  <PUBCHEM_BONDANNOTATIONS>  (1) 
8  10  1

$$$$
