563
     RDKit          2D

  7  6  0  0  0  0  0  0  0  0999 V2000
    2.2602   -0.5139    0.0000 S   0  0  0  0  0  0  0  0  0  0  0  0
   -2.9274   -0.8124    0.0000 O   0  0  0  0  0  0  0  0  0  0  0  0
   -1.7598    1.5085    0.0000 O   0  0  0  0  0  0  0  0  0  0  0  0
   -0.3336   -0.6631    0.0000 C   0  0  0  0  0  0  0  0  0  0  0  0
    0.9202    0.1603    0.0000 C   0  0  0  0  0  0  0  0  0  0  0  0
   -1.6736    0.0110    0.0000 C   0  0  0  0  0  0  0  0  0  0  0  0
    3.5140    0.3095    0.0000 C   0  0  0  0  0  0  0  0  0  0  0  0
  1  5  1  0
  1  7  1  0
  2  6  1  0
  3  6  2  0
  4  5  1  0
  4  6  1  0
M  END
>  <PUBCHEM_COMPOUND_CID>  (1) 
563

>  <PUBCHEM_COMPOUND_CANONICALIZED>  (1) 
1

>  <PUBCHEM_CACTVS_COMPLEXITY>  (1) 
62.7

>  <PUBCHEM_CACTVS_HBOND_ACCEPTOR>  (1) 
3

>  <PUBCHEM_CACTVS_HBOND_DONOR>  (1) 
1

>  <PUBCHEM_CACTVS_ROTATABLE_BOND>  (1) 
3

>  <PUBCHEM_CACTVS_SUBSKEYS>  (1) 
AAADccBgMABAAAAAAAAAAAAAAAAAAAAAAAAAAAAAAAAAAAAAAAAAGgQACAAACACEwACCCAAAAggIAACQCAAAAAAAABAAAAEAAAAAAAAgAAAAQAAAAAAAAAAAAAAAAAAAAAAAAAAAAAAAAAAAAAAAAAAAAA==

>  <PUBCHEM_IUPAC_OPENEYE_NAME>  (1) 
3-methylsulfanylpropanoic acid

>  <PUBCHEM_IUPAC_CAS_NAME>  (1) 
3-(methylthio)propanoic acid

>  <PUBCHEM_IUPAC_NAME_MARKUP>  (1) 
3-methylsulfanylpropanoic acid

>  <PUBCHEM_IUPAC_NAME>  (1) 
3-methylsulfanylpropanoic acid

>  <PUBCHEM_IUPAC_SYSTEMATIC_NAME>  (1) 
3-methylsulfanylpropanoic acid

>  <PUBCHEM_IUPAC_TRADITIONAL_NAME>  (1) 
3-(methylthio)propionic acid

>  <PUBCHEM_IUPAC_INCHI>  (1) 
InChI=1S/C4H8O2S/c1-7-3-2-4(5)6/h2-3H2,1H3,(H,5,6)

>  <PUBCHEM_IUPAC_INCHIKEY>  (1) 
CAOMCZAIALVUPA-UHFFFAOYSA-N

>  <PUBCHEM_XLOGP3_AA>  (1) 
0.4

>  <PUBCHEM_EXACT_MASS>  (1) 
120.024501

>  <PUBCHEM_MOLECULAR_FORMULA>  (1) 
C4H8O2S

>  <PUBCHEM_MOLECULAR_WEIGHT>  (1) 
120.17

>  <PUBCHEM_OPENEYE_CAN_SMILES>  (1) 
CSCCC(=O)O

>  <PUBCHEM_OPENEYE_ISO_SMILES>  (1) 
CSCCC(=O)O

>  <PUBCHEM_CACTVS_TPSA>  (1) 
62.6

>  <PUBCHEM_MONOISOTOPIC_WEIGHT>  (1) 
120.024501

>  <PUBCHEM_TOTAL_CHARGE>  (1) 
0

>  <PUBCHEM_HEAVY_ATOM_COUNT>  (1) 
7

>  <PUBCHEM_ATOM_DEF_STEREO_COUNT>  (1) 
0

>  <PUBCHEM_ATOM_UDEF_STEREO_COUNT>  (1) 
0

>  <PUBCHEM_BOND_DEF_STEREO_COUNT>  (1) 
0

>  <PUBCHEM_BOND_UDEF_STEREO_COUNT>  (1) 
0

>  <PUBCHEM_ISOTOPIC_ATOM_COUNT>  (1) 
0

>  <PUBCHEM_COMPONENT_COUNT>  (1) 
1

>  <PUBCHEM_CACTVS_TAUTO_COUNT>  (1) 
-1

>  <PUBCHEM_COORDINATE_TYPE>  (1) 
1
5
255

$$$$
