571
     RDKit          2D

 19 18  0  0  1  0  0  0  0  0999 V2000
    0.5089    0.2154    0.0000 S   0  0  0  0  0  0  0  0  0  0  0  0
    2.6800    4.1570    0.0000 S   0  0  0  0  0  0  0  0  0  0  0  0
    2.7323    1.5595    0.0000 O   0  0  0  0  0  0  0  0  0  0  0  0
   -6.9896    0.0644    0.0000 O   0  0  0  0  0  0  0  0  0  0  0  0
    6.5600   -2.2614    0.0000 O   0  0  0  0  0  0  0  0  0  0  0  0
    4.3366   -3.6054    0.0000 O   0  0  0  0  0  0  0  0  0  0  0  0
   -6.9373   -2.5331    0.0000 N   0  0  0  0  0  0  0  0  0  0  0  0
   -0.2671    1.4991    0.0000 C   0  0  0  0  0  0  0  0  0  0  0  0
   -1.7668    1.4689    0.0000 C   0  0  0  0  0  0  0  0  0  0  0  0
   -2.4905    0.1550    0.0000 C   0  0  0  0  0  0  0  0  0  0  0  0
    0.4566    2.8129    0.0000 C   0  0  0  0  0  0  0  0  0  0  0  0
   -3.9902    0.1248    0.0000 C   0  0  0  0  0  0  0  0  0  0  0  0
   -4.7139   -1.1890    0.0000 C   0  0  0  0  0  0  0  0  0  0  0  0
    1.9563    2.8431    0.0000 C   0  0  0  0  0  0  0  0  0  0  0  0
    2.0086    0.2456    0.0000 C   0  0  0  0  0  0  0  0  0  0  0  0
    2.7846   -1.0381    0.0000 C   0  0  0  0  0  0  0  0  0  0  0  0
   -6.2136   -1.2192    0.0000 C   0  0  0  0  0  0  0  0  0  0  0  0
    4.2843   -1.0079    0.0000 C   0  0  0  0  0  0  0  0  0  0  0  0
    5.0603   -2.2916    0.0000 C   0  0  0  0  0  0  0  0  0  0  0  0
  1  8  1  0
  1 15  1  0
  2 14  1  0
  3 15  2  0
  4 17  2  0
  5 19  1  0
  6 19  2  0
  7 17  1  0
  8  9  1  0
  8 11  1  0
  9 10  1  0
 10 12  1  0
 11 14  1  0
 12 13  1  0
 13 17  1  0
 15 16  1  0
 16 18  1  0
 18 19  1  0
M  END
>  <PUBCHEM_COMPOUND_CID>  (1) 
571

>  <PUBCHEM_COMPOUND_CANONICALIZED>  (1) 
1

>  <PUBCHEM_CACTVS_COMPLEXITY>  (1) 
310

>  <PUBCHEM_CACTVS_HBOND_ACCEPTOR>  (1) 
6

>  <PUBCHEM_CACTVS_HBOND_DONOR>  (1) 
3

>  <PUBCHEM_CACTVS_ROTATABLE_BOND>  (1) 
12

>  <PUBCHEM_CACTVS_SUBSKEYS>  (1) 
AAADceByOABgAAAAAAAAAAAAAAAAAAAAAAAAAAAAAAAAAAAAAAAAHgQQCAAACACFwACACABAAgwIAAGQGAAAAAAAABAAAAEAAAAAABIggAAAQAAEEAAgAAEbiICAAAAAAAAAAAAAAAAAAAAAAAAAAAAAAA==

>  <PUBCHEM_IUPAC_OPENEYE_NAME>  (1) 
4-[6-amino-6-oxo-1-(2-sulfanylethyl)hexyl]sulfanyl-4-oxo-butanoic acid

>  <PUBCHEM_IUPAC_CAS_NAME>  (1) 
4-[(8-amino-1-mercapto-8-oxooctan-3-yl)thio]-4-oxobutanoic acid

>  <PUBCHEM_IUPAC_NAME_MARKUP>  (1) 
4-(8-amino-8-oxo-1-sulfanyloctan-3-yl)sulfanyl-4-oxobutanoic acid

>  <PUBCHEM_IUPAC_NAME>  (1) 
4-(8-amino-8-oxo-1-sulfanyloctan-3-yl)sulfanyl-4-oxobutanoic acid

>  <PUBCHEM_IUPAC_SYSTEMATIC_NAME>  (1) 
4-(8-azanyl-8-oxidanylidene-1-sulfanyl-octan-3-yl)sulfanyl-4-oxidanylidene-butanoic acid

>  <PUBCHEM_IUPAC_TRADITIONAL_NAME>  (1) 
4-[[6-amino-6-keto-1-(2-mercaptoethyl)hexyl]thio]-4-keto-butyric acid

>  <PUBCHEM_IUPAC_INCHI>  (1) 
InChI=1S/C12H21NO4S2/c13-10(14)4-2-1-3-9(7-8-18)19-12(17)6-5-11(15)16/h9,18H,1-8H2,(H2,13,14)(H,15,16)

>  <PUBCHEM_IUPAC_INCHIKEY>  (1) 
RJCJWONCSKSHES-UHFFFAOYSA-N

>  <PUBCHEM_XLOGP3_AA>  (1) 
0.7

>  <PUBCHEM_EXACT_MASS>  (1) 
307.091201

>  <PUBCHEM_MOLECULAR_FORMULA>  (1) 
C12H21NO4S2

>  <PUBCHEM_MOLECULAR_WEIGHT>  (1) 
307.4

>  <PUBCHEM_OPENEYE_CAN_SMILES>  (1) 
C(CCC(=O)N)CC(CCS)SC(=O)CCC(=O)O

>  <PUBCHEM_OPENEYE_ISO_SMILES>  (1) 
C(CCC(=O)N)CC(CCS)SC(=O)CCC(=O)O

>  <PUBCHEM_CACTVS_TPSA>  (1) 
124

>  <PUBCHEM_MONOISOTOPIC_WEIGHT>  (1) 
307.091201

>  <PUBCHEM_TOTAL_CHARGE>  (1) 
0

>  <PUBCHEM_HEAVY_ATOM_COUNT>  (1) 
19

>  <PUBCHEM_ATOM_DEF_STEREO_COUNT>  (1) 
0

>  <PUBCHEM_ATOM_UDEF_STEREO_COUNT>  (1) 
1

>  <PUBCHEM_BOND_DEF_STEREO_COUNT>  (1) 
0

>  <PUBCHEM_BOND_UDEF_STEREO_COUNT>  (1) 
0

>  <PUBCHEM_ISOTOPIC_ATOM_COUNT>  (1) 
0

>  <PUBCHEM_COMPONENT_COUNT>  (1) 
1

>  <PUBCHEM_CACTVS_TAUTO_COUNT>  (1) 
-1

>  <PUBCHEM_COORDINATE_TYPE>  (1) 
1
5
255

>  <PUBCHEM_BONDANNOTATIONS>  (1) 
8  9  3

$$$$
