58
     RDKit          2D

  7  6  0  0  0  0  0  0  0  0999 V2000
   -0.5797   -1.7367    0.0000 O   0  0  0  0  0  0  0  0  0  0  0  0
    2.2837   -0.8417    0.0000 O   0  0  0  0  0  0  0  0  0  0  0  0
    1.5086    1.6381    0.0000 O   0  0  0  0  0  0  0  0  0  0  0  0
   -1.3548    0.7431    0.0000 C   0  0  0  0  0  0  0  0  0  0  0  0
   -2.7865    0.2956    0.0000 C   0  0  0  0  0  0  0  0  0  0  0  0
   -0.2514   -0.2730    0.0000 C   0  0  0  0  0  0  0  0  0  0  0  0
    1.1803    0.1745    0.0000 C   0  0  0  0  0  0  0  0  0  0  0  0
  1  6  2  0
  2  7  1  0
  3  7  2  0
  4  5  1  0
  4  6  1  0
  6  7  1  0
M  END
>  <PUBCHEM_COMPOUND_CID>  (1) 
58

>  <PUBCHEM_COMPOUND_CANONICALIZED>  (1) 
1

>  <PUBCHEM_CACTVS_COMPLEXITY>  (1) 
95.1

>  <PUBCHEM_CACTVS_HBOND_ACCEPTOR>  (1) 
3

>  <PUBCHEM_CACTVS_HBOND_DONOR>  (1) 
1

>  <PUBCHEM_CACTVS_ROTATABLE_BOND>  (1) 
2

>  <PUBCHEM_CACTVS_SUBSKEYS>  (1) 
AAADcYBgMAAAAAAAAAAAAAAAAAAAAAAAAAAAAAAAAAAAAAAAAAAAGgAACAAACASAgAACCAAAAgAIAICQCAIAAAAAAAAAAAFAAAAAABAAAAAAQAAEAAAAAAAAAAAAAAAAAAAAAAAAAAAAAAAAAAAAAAAAAA==

>  <PUBCHEM_IUPAC_OPENEYE_NAME>  (1) 
2-oxobutanoic acid

>  <PUBCHEM_IUPAC_CAS_NAME>  (1) 
2-oxobutanoic acid

>  <PUBCHEM_IUPAC_NAME_MARKUP>  (1) 
2-oxobutanoic acid

>  <PUBCHEM_IUPAC_NAME>  (1) 
2-oxobutanoic acid

>  <PUBCHEM_IUPAC_SYSTEMATIC_NAME>  (1) 
2-oxidanylidenebutanoic acid

>  <PUBCHEM_IUPAC_TRADITIONAL_NAME>  (1) 
2-ketobutyric acid

>  <PUBCHEM_IUPAC_INCHI>  (1) 
InChI=1S/C4H6O3/c1-2-3(5)4(6)7/h2H2,1H3,(H,6,7)

>  <PUBCHEM_IUPAC_INCHIKEY>  (1) 
TYEYBOSBBBHJIV-UHFFFAOYSA-N

>  <PUBCHEM_XLOGP3_AA>  (1) 
0.1

>  <PUBCHEM_EXACT_MASS>  (1) 
102.031694

>  <PUBCHEM_MOLECULAR_FORMULA>  (1) 
C4H6O3

>  <PUBCHEM_MOLECULAR_WEIGHT>  (1) 
102.09

>  <PUBCHEM_OPENEYE_CAN_SMILES>  (1) 
CCC(=O)C(=O)O

>  <PUBCHEM_OPENEYE_ISO_SMILES>  (1) 
CCC(=O)C(=O)O

>  <PUBCHEM_CACTVS_TPSA>  (1) 
54.4

>  <PUBCHEM_MONOISOTOPIC_WEIGHT>  (1) 
102.031694

>  <PUBCHEM_TOTAL_CHARGE>  (1) 
0

>  <PUBCHEM_HEAVY_ATOM_COUNT>  (1) 
7

>  <PUBCHEM_ATOM_DEF_STEREO_COUNT>  (1) 
0

>  <PUBCHEM_ATOM_UDEF_STEREO_COUNT>  (1) 
0

>  <PUBCHEM_BOND_DEF_STEREO_COUNT>  (1) 
0

>  <PUBCHEM_BOND_UDEF_STEREO_COUNT>  (1) 
0

>  <PUBCHEM_ISOTOPIC_ATOM_COUNT>  (1) 
0

>  <PUBCHEM_COMPONENT_COUNT>  (1) 
1

>  <PUBCHEM_CACTVS_TAUTO_COUNT>  (1) 
-1

>  <PUBCHEM_COORDINATE_TYPE>  (1) 
1
5
255

$$$$
