582
     RDKit          2D

 64 67  0  0  1  0  0  0  0  0999 V2000
    0.8561   -0.2585    0.0000 S   0  0  0  0  0  0  0  0  0  0  0  0
   -0.5345    0.3037    0.0000 S   0  0  0  0  0  0  0  0  0  0  0  0
    8.7832   -0.6609    0.0000 O   0  0  0  0  0  0  0  0  0  0  0  0
   -8.4616    0.7060    0.0000 O   0  0  0  0  0  0  0  0  0  0  0  0
    9.7570    1.7478    0.0000 O   0  0  0  0  0  0  0  0  0  0  0  0
   -9.4354   -1.7026    0.0000 O   0  0  0  0  0  0  0  0  0  0  0  0
    9.2001   -3.6318    0.0000 O   0  0  0  0  0  0  0  0  0  0  0  0
   11.1476    1.1855    0.0000 O   0  0  0  0  0  0  0  0  0  0  0  0
   -8.8784    3.6769    0.0000 O   0  0  0  0  0  0  0  0  0  0  0  0
  -10.8260   -1.1404    0.0000 O   0  0  0  0  0  0  0  0  0  0  0  0
   11.9814   -4.7562    0.0000 O   0  0  0  0  0  0  0  0  0  0  0  0
   13.9289    0.0611    0.0000 O   0  0  0  0  0  0  0  0  0  0  0  0
  -11.6598    4.8014    0.0000 O   0  0  0  0  0  0  0  0  0  0  0  0
  -13.6073   -0.0160    0.0000 O   0  0  0  0  0  0  0  0  0  0  0  0
   14.3458   -2.9098    0.0000 O   0  0  0  0  0  0  0  0  0  0  0  0
  -14.0242    2.9549    0.0000 O   0  0  0  0  0  0  0  0  0  0  0  0
    5.5850    3.4344    0.0000 O   0  0  0  0  0  0  0  0  0  0  0  0
   -5.2634   -3.3893    0.0000 O   0  0  0  0  0  0  0  0  0  0  0  0
    7.9494    5.2809    0.0000 O   0  0  0  0  0  0  0  0  0  0  0  0
   -7.6278   -5.2357    0.0000 O   0  0  0  0  0  0  0  0  0  0  0  0
   12.1214    3.5942    0.0000 O   0  0  0  0  0  0  0  0  0  0  0  0
  -11.7998   -3.5491    0.0000 O   0  0  0  0  0  0  0  0  0  0  0  0
    4.4028    2.5112    0.0000 O   0  0  0  0  0  0  0  0  0  0  0  0
   -4.0812   -2.4660    0.0000 O   0  0  0  0  0  0  0  0  0  0  0  0
    1.0646   -1.7440    0.0000 O   0  0  0  0  0  0  0  0  0  0  0  0
   -5.8887    1.0671    0.0000 O   0  0  0  0  0  0  0  0  0  0  0  0
    6.0019    0.4635    0.0000 N   0  0  0  0  0  0  0  0  0  0  0  0
   -5.6803   -0.4184    0.0000 N   0  0  0  0  0  0  0  0  0  0  0  0
    3.6374   -1.3830    0.0000 N   0  0  0  0  0  0  0  0  0  0  0  0
   -3.3158    1.4281    0.0000 N   0  0  0  0  0  0  0  0  0  0  0  0
   10.1738   -1.2231    0.0000 C   0  0  0  0  0  0  0  0  0  0  0  0
   -9.8522    1.2683    0.0000 C   0  0  0  0  0  0  0  0  0  0  0  0
   10.3823   -2.7086    0.0000 C   0  0  0  0  0  0  0  0  0  0  0  0
   11.3560   -0.2999    0.0000 C   0  0  0  0  0  0  0  0  0  0  0  0
  -10.0607    2.7537    0.0000 C   0  0  0  0  0  0  0  0  0  0  0  0
  -11.0344    0.3450    0.0000 C   0  0  0  0  0  0  0  0  0  0  0  0
   11.7729   -3.2708    0.0000 C   0  0  0  0  0  0  0  0  0  0  0  0
   12.7467   -0.8621    0.0000 C   0  0  0  0  0  0  0  0  0  0  0  0
  -11.4513    3.3159    0.0000 C   0  0  0  0  0  0  0  0  0  0  0  0
  -12.4251    0.9072    0.0000 C   0  0  0  0  0  0  0  0  0  0  0  0
   12.9551   -2.3476    0.0000 C   0  0  0  0  0  0  0  0  0  0  0  0
  -12.6335    2.3927    0.0000 C   0  0  0  0  0  0  0  0  0  0  0  0
    8.5747    0.8245    0.0000 C   0  0  0  0  0  0  0  0  0  0  0  0
   -8.2531   -0.7794    0.0000 C   0  0  0  0  0  0  0  0  0  0  0  0
    7.1841    1.3867    0.0000 C   0  0  0  0  0  0  0  0  0  0  0  0
   -6.8625   -1.3416    0.0000 C   0  0  0  0  0  0  0  0  0  0  0  0
    6.9757    2.8722    0.0000 C   0  0  0  0  0  0  0  0  0  0  0  0
   -6.6540   -2.8271    0.0000 C   0  0  0  0  0  0  0  0  0  0  0  0
    8.1579    3.7954    0.0000 C   0  0  0  0  0  0  0  0  0  0  0  0
   -7.8363   -3.7503    0.0000 C   0  0  0  0  0  0  0  0  0  0  0  0
    9.5485    3.2332    0.0000 C   0  0  0  0  0  0  0  0  0  0  0  0
   -9.2269   -3.1881    0.0000 C   0  0  0  0  0  0  0  0  0  0  0  0
   10.7307    4.1564    0.0000 C   0  0  0  0  0  0  0  0  0  0  0  0
  -10.4091   -4.1113    0.0000 C   0  0  0  0  0  0  0  0  0  0  0  0
    4.6112    1.0257    0.0000 C   0  0  0  0  0  0  0  0  0  0  0  0
   -4.2896   -0.9806    0.0000 C   0  0  0  0  0  0  0  0  0  0  0  0
    3.4290    0.1025    0.0000 C   0  0  0  0  0  0  0  0  0  0  0  0
   -3.1074   -0.0574    0.0000 C   0  0  0  0  0  0  0  0  0  0  0  0
    2.0383    0.6647    0.0000 C   0  0  0  0  0  0  0  0  0  0  0  0
   -1.7167   -0.6196    0.0000 C   0  0  0  0  0  0  0  0  0  0  0  0
    2.4552   -2.3062    0.0000 C   0  0  0  0  0  0  0  0  0  0  0  0
   -4.7065    1.9903    0.0000 C   0  0  0  0  0  0  0  0  0  0  0  0
    2.6637   -3.7916    0.0000 C   0  0  0  0  0  0  0  0  0  0  0  0
   -4.9149    3.4758    0.0000 C   0  0  0  0  0  0  0  0  0  0  0  0
  1  2  1  0
  1 59  1  0
  2 60  1  0
  3 31  1  0
  3 43  1  0
  4 32  1  0
  4 44  1  0
  5 43  1  0
  5 51  1  0
  6 44  1  0
  6 52  1  0
  7 33  1  0
  8 34  1  0
  9 35  1  0
 10 36  1  0
 11 37  1  0
 12 38  1  0
 13 39  1  0
 14 40  1  0
 15 41  1  0
 16 42  1  0
 17 47  1  0
 18 48  1  0
 19 49  1  0
 20 50  1  0
 21 53  1  0
 22 54  1  0
 23 55  2  0
 24 56  2  0
 25 61  2  0
 26 62  2  0
 27 45  1  0
 27 55  1  0
 28 46  1  0
 28 56  1  0
 29 57  1  0
 29 61  1  0
 30 58  1  0
 30 62  1  0
 31 33  1  0
 31 34  1  0
 32 35  1  0
 32 36  1  0
 33 37  1  0
 34 38  1  0
 35 39  1  0
 36 40  1  0
 37 41  1  0
 38 41  1  0
 39 42  1  0
 40 42  1  0
 43 45  1  0
 44 46  1  0
 45 47  1  0
 46 48  1  0
 47 49  1  0
 48 50  1  0
 49 51  1  0
 50 52  1  0
 51 53  1  0
 52 54  1  0
 55 57  1  0
 56 58  1  0
 57 59  1  0
 58 60  1  0
 61 63  1  0
 62 64  1  0
M  END
>  <PUBCHEM_COMPOUND_CID>  (1) 
582

>  <PUBCHEM_COMPOUND_CANONICALIZED>  (1) 
1

>  <PUBCHEM_CACTVS_COMPLEXITY>  (1) 
1420

>  <PUBCHEM_CACTVS_HBOND_ACCEPTOR>  (1) 
26

>  <PUBCHEM_CACTVS_HBOND_DONOR>  (1) 
20

>  <PUBCHEM_CACTVS_ROTATABLE_BOND>  (1) 
17

>  <PUBCHEM_CACTVS_SUBSKEYS>  (1) 
AAADcfB/vgBgAAAAAAAAAAAAAAAAAAAAAAA0aIEAAAAAAAAAAAAAHgQQCAAACDz1wAeCCALABgAIAAEQEAAAAAAAAAAAAIGIAAATUAIAgCA3QAAHFgCXAAHwcA8AAAAAAAAAAAACAAAQAACAAAAAAAAAAA==

>  <PUBCHEM_IUPAC_OPENEYE_NAME>  (1) 
2-acetamido-3-[[2-acetamido-3-[[4,5-dihydroxy-6-(hydroxymethyl)-2-(2,3,4,5,6-pentahydroxycyclohexoxy)tetrahydropyran-3-yl]amino]-3-oxo-propyl]disulfanyl]-N-[4,5-dihydroxy-6-(hydroxymethyl)-2-(2,3,4,5,6-pentahydroxycyclohexoxy)tetrahydropyran-3-yl]propanamide

>  <PUBCHEM_IUPAC_CAS_NAME>  (1) 
2-acetamido-3-[[2-acetamido-3-[[4,5-dihydroxy-6-(hydroxymethyl)-2-(2,3,4,5,6-pentahydroxycyclohexyl)oxy-3-oxanyl]amino]-3-oxopropyl]disulfanyl]-N-[4,5-dihydroxy-6-(hydroxymethyl)-2-(2,3,4,5,6-pentahydroxycyclohexyl)oxy-3-oxanyl]propanamide

>  <PUBCHEM_IUPAC_NAME_MARKUP>  (1) 
2-acetamido-3-[[2-acetamido-3-[[4,5-dihydroxy-6-(hydroxymethyl)-2-(2,3,4,5,6-pentahydroxycyclohexyl)oxyoxan-3-yl]amino]-3-oxopropyl]disulfanyl]-<I>N</I>-[4,5-dihydroxy-6-(hydroxymethyl)-2-(2,3,4,5,6-pentahydroxycyclohexyl)oxyoxan-3-yl]propanamide

>  <PUBCHEM_IUPAC_NAME>  (1) 
2-acetamido-3-[[2-acetamido-3-[[4,5-dihydroxy-6-(hydroxymethyl)-2-(2,3,4,5,6-pentahydroxycyclohexyl)oxyoxan-3-yl]amino]-3-oxopropyl]disulfanyl]-N-[4,5-dihydroxy-6-(hydroxymethyl)-2-(2,3,4,5,6-pentahydroxycyclohexyl)oxyoxan-3-yl]propanamide

>  <PUBCHEM_IUPAC_SYSTEMATIC_NAME>  (1) 
2-acetamido-3-[[2-acetamido-3-[[6-(hydroxymethyl)-4,5-bis(oxidanyl)-2-[2,3,4,5,6-pentakis(oxidanyl)cyclohexyl]oxy-oxan-3-yl]amino]-3-oxidanylidene-propyl]disulfanyl]-N-[6-(hydroxymethyl)-4,5-bis(oxidanyl)-2-[2,3,4,5,6-pentakis(oxidanyl)cyclohexyl]oxy-oxan-3-yl]propanamide

>  <PUBCHEM_IUPAC_TRADITIONAL_NAME>  (1) 
2-acetamido-3-[[2-acetamido-3-[[4,5-dihydroxy-6-methylol-2-(2,3,4,5,6-pentahydroxycyclohexoxy)tetrahydropyran-3-yl]amino]-3-keto-propyl]disulfanyl]-N-[4,5-dihydroxy-6-methylol-2-(2,3,4,5,6-pentahydroxycyclohexoxy)tetrahydropyran-3-yl]propionamide

>  <PUBCHEM_IUPAC_INCHI>  (1) 
InChI=1S/C34H58N4O24S2/c1-7(41)35-9(31(57)37-13-17(45)15(43)11(3-39)59-33(13)61-29-25(53)21(49)19(47)22(50)26(29)54)5-63-64-6-10(36-8(2)42)32(58)38-14-18(46)16(44)12(4-40)60-34(14)62-30-27(55)23(51)20(48)24(52)28(30)56/h9-30,33-34,39-40,43-56H,3-6H2,1-2H3,(H,35,41)(H,36,42)(H,37,57)(H,38,58)

>  <PUBCHEM_IUPAC_INCHIKEY>  (1) 
YKSIHFDRGQQOCJ-UHFFFAOYSA-N

>  <PUBCHEM_XLOGP3_AA>  (1) 
-11.4

>  <PUBCHEM_EXACT_MASS>  (1) 
970.288241

>  <PUBCHEM_MOLECULAR_FORMULA>  (1) 
C34H58N4O24S2

>  <PUBCHEM_MOLECULAR_WEIGHT>  (1) 
971

>  <PUBCHEM_OPENEYE_CAN_SMILES>  (1) 
CC(=O)NC(CSSCC(C(=O)NC1C(C(C(OC1OC2C(C(C(C(C2O)O)O)O)O)CO)O)O)NC(=O)C)C(=O)NC3C(C(C(OC3OC4C(C(C(C(C4O)O)O)O)O)CO)O)O

>  <PUBCHEM_OPENEYE_ISO_SMILES>  (1) 
CC(=O)NC(CSSCC(C(=O)NC1C(C(C(OC1OC2C(C(C(C(C2O)O)O)O)O)CO)O)O)NC(=O)C)C(=O)NC3C(C(C(OC3OC4C(C(C(C(C4O)O)O)O)O)CO)O)O

>  <PUBCHEM_CACTVS_TPSA>  (1) 
528

>  <PUBCHEM_MONOISOTOPIC_WEIGHT>  (1) 
970.288241

>  <PUBCHEM_TOTAL_CHARGE>  (1) 
0

>  <PUBCHEM_HEAVY_ATOM_COUNT>  (1) 
64

>  <PUBCHEM_ATOM_DEF_STEREO_COUNT>  (1) 
0

>  <PUBCHEM_ATOM_UDEF_STEREO_COUNT>  (1) 
20

>  <PUBCHEM_BOND_DEF_STEREO_COUNT>  (1) 
0

>  <PUBCHEM_BOND_UDEF_STEREO_COUNT>  (1) 
0

>  <PUBCHEM_ISOTOPIC_ATOM_COUNT>  (1) 
0

>  <PUBCHEM_COMPONENT_COUNT>  (1) 
1

>  <PUBCHEM_CACTVS_TAUTO_COUNT>  (1) 
-1

>  <PUBCHEM_COORDINATE_TYPE>  (1) 
1
5
255

>  <PUBCHEM_BONDANNOTATIONS>  (1) 
36  10  3
37  11  3
38  12  3
39  13  3
40  14  3
47  17  3
48  18  3
49  19  3
50  20  3
45  27  3
46  28  3
43  3  3
44  4  3
51  53  3
52  54  3
57  59  3
58  60  3
33  7  3
34  8  3
35  9  3

$$$$
