587
     RDKit          2D

 13 12  0  0  0  0  0  0  0  0999 V2000
    2.6102   -0.2380    0.0000 P   0  0  0  0  0  0  0  0  0  0  0  0
   -4.2220   -0.9932    0.0000 O   0  0  0  0  0  0  0  0  0  0  0  0
    3.6293    0.8626    0.0000 O   0  0  0  0  0  0  0  0  0  0  0  0
    1.5911   -1.3386    0.0000 O   0  0  0  0  0  0  0  0  0  0  0  0
   -1.6885   -1.5688    0.0000 O   0  0  0  0  0  0  0  0  0  0  0  0
    3.7108   -1.2571    0.0000 O   0  0  0  0  0  0  0  0  0  0  0  0
   -1.0239    1.3567    0.0000 N   0  0  0  0  0  0  0  0  0  0  0  0
    1.5096    0.7811    0.0000 N   0  0  0  0  0  0  0  0  0  0  0  0
   -0.2556   -1.1252    0.0000 N   0  0  0  0  0  0  0  0  0  0  0  0
   -2.4568    0.9131    0.0000 C   0  0  0  0  0  0  0  0  0  0  0  0
    0.0767    0.3376    0.0000 C   0  0  0  0  0  0  0  0  0  0  0  0
   -0.6916    2.8194    0.0000 C   0  0  0  0  0  0  0  0  0  0  0  0
   -2.7891   -0.5496    0.0000 C   0  0  0  0  0  0  0  0  0  0  0  0
  1  3  1  0
  1  4  1  0
  1  6  2  0
  1  8  1  0
  2 13  1  0
  5 13  2  0
  7 10  1  0
  7 11  1  0
  7 12  1  0
  8 11  2  3
  9 11  1  0
 10 13  1  0
M  END
>  <PUBCHEM_COMPOUND_CID>  (1) 
587

>  <PUBCHEM_COMPOUND_CANONICALIZED>  (1) 
1

>  <PUBCHEM_CACTVS_COMPLEXITY>  (1) 
271

>  <PUBCHEM_CACTVS_HBOND_ACCEPTOR>  (1) 
6

>  <PUBCHEM_CACTVS_HBOND_DONOR>  (1) 
4

>  <PUBCHEM_CACTVS_ROTATABLE_BOND>  (1) 
4

>  <PUBCHEM_CACTVS_SUBSKEYS>  (1) 
AAADccBjOAIAAAAAAAAAAAAAAAAAAAAAAAAAAAAAAAAAAAAAAAAAHgAQiCAAAADBgAQDCANAAhAoQACQKIAAAAAAAAABAACIAACCAAAACCAAAAAAAAIQAAAAAAAAAAAAAAAAAAAAAAAAAAAAAAAAAAAAAA==

>  <PUBCHEM_IUPAC_OPENEYE_NAME>  (1) 
2-[methyl-(N'-phosphonocarbamimidoyl)amino]acetic acid

>  <PUBCHEM_IUPAC_CAS_NAME>  (1) 
2-[[amino(phosphonoimino)methyl]-methylamino]acetic acid

>  <PUBCHEM_IUPAC_NAME_MARKUP>  (1) 
2-[methyl-(<I>N</I>&apos;-phosphonocarbamimidoyl)amino]acetic acid

>  <PUBCHEM_IUPAC_NAME>  (1) 
2-[methyl-(N'-phosphonocarbamimidoyl)amino]acetic acid

>  <PUBCHEM_IUPAC_SYSTEMATIC_NAME>  (1) 
2-[methyl-(N'-phosphonocarbamimidoyl)amino]ethanoic acid

>  <PUBCHEM_IUPAC_TRADITIONAL_NAME>  (1) 
2-[methyl-(N'-phosphonoamidino)amino]acetic acid

>  <PUBCHEM_IUPAC_INCHI>  (1) 
InChI=1S/C4H10N3O5P/c1-7(2-3(8)9)4(5)6-13(10,11)12/h2H2,1H3,(H,8,9)(H4,5,6,10,11,12)

>  <PUBCHEM_IUPAC_INCHIKEY>  (1) 
DRBBFCLWYRJSJZ-UHFFFAOYSA-N

>  <PUBCHEM_XLOGP3_AA>  (1) 
-2.6

>  <PUBCHEM_EXACT_MASS>  (1) 
211.035807

>  <PUBCHEM_MOLECULAR_FORMULA>  (1) 
C4H10N3O5P

>  <PUBCHEM_MOLECULAR_WEIGHT>  (1) 
211.11

>  <PUBCHEM_OPENEYE_CAN_SMILES>  (1) 
CN(CC(=O)O)C(=NP(=O)(O)O)N

>  <PUBCHEM_OPENEYE_ISO_SMILES>  (1) 
CN(CC(=O)O)C(=NP(=O)(O)O)N

>  <PUBCHEM_CACTVS_TPSA>  (1) 
136

>  <PUBCHEM_MONOISOTOPIC_WEIGHT>  (1) 
211.035807

>  <PUBCHEM_TOTAL_CHARGE>  (1) 
0

>  <PUBCHEM_HEAVY_ATOM_COUNT>  (1) 
13

>  <PUBCHEM_ATOM_DEF_STEREO_COUNT>  (1) 
0

>  <PUBCHEM_ATOM_UDEF_STEREO_COUNT>  (1) 
0

>  <PUBCHEM_BOND_DEF_STEREO_COUNT>  (1) 
0

>  <PUBCHEM_BOND_UDEF_STEREO_COUNT>  (1) 
1

>  <PUBCHEM_ISOTOPIC_ATOM_COUNT>  (1) 
0

>  <PUBCHEM_COMPONENT_COUNT>  (1) 
1

>  <PUBCHEM_CACTVS_TAUTO_COUNT>  (1) 
-1

>  <PUBCHEM_COORDINATE_TYPE>  (1) 
1
5
255

>  <PUBCHEM_BONDANNOTATIONS>  (1) 
8  11  1

$$$$
