588
     RDKit          2D

  8  8  0  0  0  0  0  0  0  0999 V2000
    2.9904    0.0000    0.0000 O   0  0  0  0  0  0  0  0  0  0  0  0
   -0.8178   -0.7500    0.0000 N   0  0  0  0  0  0  0  0  0  0  0  0
    0.6088    1.2135    0.0000 N   0  0  0  0  0  0  0  0  0  0  0  0
   -2.0314    1.6317    0.0000 N   0  0  0  0  0  0  0  0  0  0  0  0
    0.6088   -1.2135    0.0000 C   0  0  0  0  0  0  0  0  0  0  0  0
   -0.8178    0.7500    0.0000 C   0  0  0  0  0  0  0  0  0  0  0  0
    1.4904   -0.0000    0.0000 C   0  0  0  0  0  0  0  0  0  0  0  0
   -2.0314   -1.6317    0.0000 C   0  0  0  0  0  0  0  0  0  0  0  0
  1  7  2  0
  2  5  1  0
  2  6  1  0
  2  8  1  0
  3  6  2  0
  3  7  1  0
  4  6  1  0
  5  7  1  0
M  END
>  <PUBCHEM_COMPOUND_CID>  (1) 
588

>  <PUBCHEM_COMPOUND_CANONICALIZED>  (1) 
1

>  <PUBCHEM_CACTVS_COMPLEXITY>  (1) 
151

>  <PUBCHEM_CACTVS_HBOND_ACCEPTOR>  (1) 
1

>  <PUBCHEM_CACTVS_HBOND_DONOR>  (1) 
1

>  <PUBCHEM_CACTVS_ROTATABLE_BOND>  (1) 
0

>  <PUBCHEM_CACTVS_SUBSKEYS>  (1) 
AAADcYBjIAAAAAAAAAAAAAAAAAAAAQAAAAAAAAAAAAAAAAAAAAAAHgAQAAAAAADBgAQDAANAAAAoAAEQNAAAAAEAAAABAACIAACAQAAACCAQAAAAAAIAAAAAAAAAAAAAAAAAAAAAAAAAAAAAAAAAAAAAAA==

>  <PUBCHEM_IUPAC_OPENEYE_NAME>  (1) 
2-amino-3-methyl-4H-imidazol-5-one

>  <PUBCHEM_IUPAC_CAS_NAME>  (1) 
2-amino-3-methyl-4H-imidazol-5-one

>  <PUBCHEM_IUPAC_NAME_MARKUP>  (1) 
2-amino-3-methyl-4<I>H</I>-imidazol-5-one

>  <PUBCHEM_IUPAC_NAME>  (1) 
2-amino-3-methyl-4H-imidazol-5-one

>  <PUBCHEM_IUPAC_SYSTEMATIC_NAME>  (1) 
2-azanyl-3-methyl-4H-imidazol-5-one

>  <PUBCHEM_IUPAC_TRADITIONAL_NAME>  (1) 
2-amino-1-methyl-2-imidazolin-4-one

>  <PUBCHEM_IUPAC_INCHI>  (1) 
InChI=1S/C4H7N3O/c1-7-2-3(8)6-4(7)5/h2H2,1H3,(H2,5,6,8)

>  <PUBCHEM_IUPAC_INCHIKEY>  (1) 
DDRJAANPRJIHGJ-UHFFFAOYSA-N

>  <PUBCHEM_XLOGP3>  (1) 
-1.8

>  <PUBCHEM_EXACT_MASS>  (1) 
113.058912

>  <PUBCHEM_MOLECULAR_FORMULA>  (1) 
C4H7N3O

>  <PUBCHEM_MOLECULAR_WEIGHT>  (1) 
113.12

>  <PUBCHEM_OPENEYE_CAN_SMILES>  (1) 
CN1CC(=O)N=C1N

>  <PUBCHEM_OPENEYE_ISO_SMILES>  (1) 
CN1CC(=O)N=C1N

>  <PUBCHEM_CACTVS_TPSA>  (1) 
58.7

>  <PUBCHEM_MONOISOTOPIC_WEIGHT>  (1) 
113.058912

>  <PUBCHEM_TOTAL_CHARGE>  (1) 
0

>  <PUBCHEM_HEAVY_ATOM_COUNT>  (1) 
8

>  <PUBCHEM_ATOM_DEF_STEREO_COUNT>  (1) 
0

>  <PUBCHEM_ATOM_UDEF_STEREO_COUNT>  (1) 
0

>  <PUBCHEM_BOND_DEF_STEREO_COUNT>  (1) 
0

>  <PUBCHEM_BOND_UDEF_STEREO_COUNT>  (1) 
0

>  <PUBCHEM_ISOTOPIC_ATOM_COUNT>  (1) 
0

>  <PUBCHEM_COMPONENT_COUNT>  (1) 
1

>  <PUBCHEM_CACTVS_TAUTO_COUNT>  (1) 
-1

>  <PUBCHEM_COORDINATE_TYPE>  (1) 
1
5
255

$$$$
