59
     RDKit          2D

 11 10  0  0  1  0  0  0  0  0999 V2000
    1.6270    0.4009    0.0000 P   0  0  0  0  0  0  0  0  0  0  0  0
    0.2734    1.0472    0.0000 O   0  0  0  0  0  0  0  0  0  0  0  0
   -2.4338    2.3400    0.0000 O   0  0  0  0  0  0  0  0  0  0  0  0
    0.9806   -0.9527    0.0000 O   0  0  0  0  0  0  0  0  0  0  0  0
    2.9806   -0.2455    0.0000 O   0  0  0  0  0  0  0  0  0  0  0  0
    0.5074   -1.9436    0.0000 O   0  0  0  0  0  0  0  0  0  0  0  0
    2.2734    1.7545    0.0000 O   0  0  0  0  0  0  0  0  0  0  0  0
   -2.0827   -2.1463    0.0000 O   0  0  0  0  0  0  0  0  0  0  0  0
   -0.9632    0.1982    0.0000 C   0  0  0  0  0  0  0  0  0  0  0  0
   -2.3167    0.8446    0.0000 C   0  0  0  0  0  0  0  0  0  0  0  0
   -0.8461   -1.2972    0.0000 C   0  0  0  0  0  0  0  0  0  0  0  0
  1  2  1  0
  1  4  1  0
  1  5  1  0
  1  7  2  0
  2  9  1  0
  3 10  1  0
  6 11  1  0
  8 11  2  0
  9 10  1  0
  9 11  1  0
M  END
>  <PUBCHEM_COMPOUND_CID>  (1) 
59

>  <PUBCHEM_COMPOUND_CANONICALIZED>  (1) 
1

>  <PUBCHEM_CACTVS_COMPLEXITY>  (1) 
182

>  <PUBCHEM_CACTVS_HBOND_ACCEPTOR>  (1) 
7

>  <PUBCHEM_CACTVS_HBOND_DONOR>  (1) 
4

>  <PUBCHEM_CACTVS_ROTATABLE_BOND>  (1) 
4

>  <PUBCHEM_CACTVS_SUBSKEYS>  (1) 
AAADcYBAOAIAAAAAAAAAAAAAAAAAAAAAAAAAAAAAAAAAAAAAAAAAGgAACCAACBSggAIACAAAAxAIQACQCIIAAAAAAAAAAAFAAAABEAQAAAAAQAABIAABAAAAAAAAAAAAAAAAAAAAAAAAAAAAAAAAAAAAAA==

>  <PUBCHEM_IUPAC_OPENEYE_NAME>  (1) 
3-hydroxy-2-phosphonooxy-propanoic acid

>  <PUBCHEM_IUPAC_CAS_NAME>  (1) 
3-hydroxy-2-phosphonooxypropanoic acid

>  <PUBCHEM_IUPAC_NAME_MARKUP>  (1) 
3-hydroxy-2-phosphonooxypropanoic acid

>  <PUBCHEM_IUPAC_NAME>  (1) 
3-hydroxy-2-phosphonooxypropanoic acid

>  <PUBCHEM_IUPAC_SYSTEMATIC_NAME>  (1) 
3-oxidanyl-2-phosphonooxy-propanoic acid

>  <PUBCHEM_IUPAC_TRADITIONAL_NAME>  (1) 
3-hydroxy-2-phosphonooxy-propionic acid

>  <PUBCHEM_IUPAC_INCHI>  (1) 
InChI=1S/C3H7O7P/c4-1-2(3(5)6)10-11(7,8)9/h2,4H,1H2,(H,5,6)(H2,7,8,9)

>  <PUBCHEM_IUPAC_INCHIKEY>  (1) 
GXIURPTVHJPJLF-UHFFFAOYSA-N

>  <PUBCHEM_XLOGP3_AA>  (1) 
-2.6

>  <PUBCHEM_EXACT_MASS>  (1) 
185.99294

>  <PUBCHEM_MOLECULAR_FORMULA>  (1) 
C3H7O7P

>  <PUBCHEM_MOLECULAR_WEIGHT>  (1) 
186.06

>  <PUBCHEM_OPENEYE_CAN_SMILES>  (1) 
C(C(C(=O)O)OP(=O)(O)O)O

>  <PUBCHEM_OPENEYE_ISO_SMILES>  (1) 
C(C(C(=O)O)OP(=O)(O)O)O

>  <PUBCHEM_CACTVS_TPSA>  (1) 
124

>  <PUBCHEM_MONOISOTOPIC_WEIGHT>  (1) 
185.99294

>  <PUBCHEM_TOTAL_CHARGE>  (1) 
0

>  <PUBCHEM_HEAVY_ATOM_COUNT>  (1) 
11

>  <PUBCHEM_ATOM_DEF_STEREO_COUNT>  (1) 
0

>  <PUBCHEM_ATOM_UDEF_STEREO_COUNT>  (1) 
1

>  <PUBCHEM_BOND_DEF_STEREO_COUNT>  (1) 
0

>  <PUBCHEM_BOND_UDEF_STEREO_COUNT>  (1) 
0

>  <PUBCHEM_ISOTOPIC_ATOM_COUNT>  (1) 
0

>  <PUBCHEM_COMPONENT_COUNT>  (1) 
1

>  <PUBCHEM_CACTVS_TAUTO_COUNT>  (1) 
-1

>  <PUBCHEM_COORDINATE_TYPE>  (1) 
1
5
255

>  <PUBCHEM_BONDANNOTATIONS>  (1) 
9  10  3

$$$$
