610
     RDKit          2D

 13 13  0  0  1  0  0  0  0  0999 V2000
   -0.1395   -1.5200    0.0000 O   0  0  0  0  0  0  0  0  0  0  0  0
    1.7159    2.5797    0.0000 O   0  0  0  0  0  0  0  0  0  0  0  0
   -1.2696    2.2843    0.0000 O   0  0  0  0  0  0  0  0  0  0  0  0
    3.4644    0.1420    0.0000 O   0  0  0  0  0  0  0  0  0  0  0  0
    2.2275   -2.5912    0.0000 O   0  0  0  0  0  0  0  0  0  0  0  0
   -3.1249   -1.8154    0.0000 O   0  0  0  0  0  0  0  0  0  0  0  0
   -3.3807    0.7700    0.0000 O   0  0  0  0  0  0  0  0  0  0  0  0
    1.0974    1.2131    0.0000 C   0  0  0  0  0  0  0  0  0  0  0  0
   -0.3953    1.0654    0.0000 C   0  0  0  0  0  0  0  0  0  0  0  0
    1.9717   -0.0057    0.0000 C   0  0  0  0  0  0  0  0  0  0  0  0
   -1.0137   -0.3011    0.0000 C   0  0  0  0  0  0  0  0  0  0  0  0
    1.3532   -1.3723    0.0000 C   0  0  0  0  0  0  0  0  0  0  0  0
   -2.5064   -0.4488    0.0000 C   0  0  0  0  0  0  0  0  0  0  0  0
  1 11  1  0
  1 12  1  0
  2  8  1  0
  3  9  1  0
  4 10  1  0
  5 12  1  0
  6 13  1  0
  7 13  2  0
  8  9  1  0
  8 10  1  0
  9 11  1  0
 10 12  1  0
 11 13  1  0
M  END
>  <PUBCHEM_COMPOUND_CID>  (1) 
610

>  <PUBCHEM_COMPOUND_CANONICALIZED>  (1) 
1

>  <PUBCHEM_CACTVS_COMPLEXITY>  (1) 
205

>  <PUBCHEM_CACTVS_HBOND_ACCEPTOR>  (1) 
7

>  <PUBCHEM_CACTVS_HBOND_DONOR>  (1) 
5

>  <PUBCHEM_CACTVS_ROTATABLE_BOND>  (1) 
1

>  <PUBCHEM_CACTVS_SUBSKEYS>  (1) 
AAADccBgOAAAAAAAAAAAAAAAAAAAAAAAAAAkAAAAAAAAAAAAAAAAGgAACAAACBSwgAMACAAABgAIAACQCAIAAAAAAAAAAAFAAAAREBYAAAQCQAAFIAAHAAHKbARAAAAAAAAAAAAAAAAAAAAAAAAAAAAAAA==

>  <PUBCHEM_IUPAC_OPENEYE_NAME>  (1) 
3,4,5,6-tetrahydroxytetrahydropyran-2-carboxylic acid

>  <PUBCHEM_IUPAC_CAS_NAME>  (1) 
3,4,5,6-tetrahydroxy-2-oxanecarboxylic acid

>  <PUBCHEM_IUPAC_NAME_MARKUP>  (1) 
3,4,5,6-tetrahydroxyoxane-2-carboxylic acid

>  <PUBCHEM_IUPAC_NAME>  (1) 
3,4,5,6-tetrahydroxyoxane-2-carboxylic acid

>  <PUBCHEM_IUPAC_SYSTEMATIC_NAME>  (1) 
3,4,5,6-tetrakis(oxidanyl)oxane-2-carboxylic acid

>  <PUBCHEM_IUPAC_TRADITIONAL_NAME>  (1) 
3,4,5,6-tetrahydroxytetrahydropyran-2-carboxylic acid

>  <PUBCHEM_IUPAC_INCHI>  (1) 
InChI=1S/C6H10O7/c7-1-2(8)4(5(10)11)13-6(12)3(1)9/h1-4,6-9,12H,(H,10,11)

>  <PUBCHEM_IUPAC_INCHIKEY>  (1) 
AEMOLEFTQBMNLQ-UHFFFAOYSA-N

>  <PUBCHEM_XLOGP3_AA>  (1) 
-2.3

>  <PUBCHEM_EXACT_MASS>  (1) 
194.042653

>  <PUBCHEM_MOLECULAR_FORMULA>  (1) 
C6H10O7

>  <PUBCHEM_MOLECULAR_WEIGHT>  (1) 
194.14

>  <PUBCHEM_OPENEYE_CAN_SMILES>  (1) 
C1(C(C(OC(C1O)O)C(=O)O)O)O

>  <PUBCHEM_OPENEYE_ISO_SMILES>  (1) 
C1(C(C(OC(C1O)O)C(=O)O)O)O

>  <PUBCHEM_CACTVS_TPSA>  (1) 
127

>  <PUBCHEM_MONOISOTOPIC_WEIGHT>  (1) 
194.042653

>  <PUBCHEM_TOTAL_CHARGE>  (1) 
0

>  <PUBCHEM_HEAVY_ATOM_COUNT>  (1) 
13

>  <PUBCHEM_ATOM_DEF_STEREO_COUNT>  (1) 
0

>  <PUBCHEM_ATOM_UDEF_STEREO_COUNT>  (1) 
5

>  <PUBCHEM_BOND_DEF_STEREO_COUNT>  (1) 
0

>  <PUBCHEM_BOND_UDEF_STEREO_COUNT>  (1) 
0

>  <PUBCHEM_ISOTOPIC_ATOM_COUNT>  (1) 
0

>  <PUBCHEM_COMPONENT_COUNT>  (1) 
1

>  <PUBCHEM_CACTVS_TAUTO_COUNT>  (1) 
-1

>  <PUBCHEM_COORDINATE_TYPE>  (1) 
1
5
255

>  <PUBCHEM_BONDANNOTATIONS>  (1) 
11  13  3
8  2  3
9  3  3
10  4  3
12  5  3

$$$$
