612
     RDKit          2D

  6  5  0  0  1  0  0  0  0  0999 V2000
    1.5000   -1.2990    0.0000 O   0  0  0  0  0  0  0  0  0  0  0  0
   -1.5000   -1.2990    0.0000 O   0  0  0  0  0  0  0  0  0  0  0  0
   -1.5000    1.2990    0.0000 O   0  0  0  0  0  0  0  0  0  0  0  0
    0.7500    0.0000    0.0000 C   0  0  0  0  0  0  0  0  0  0  0  0
    1.5000    1.2990    0.0000 C   0  0  0  0  0  0  0  0  0  0  0  0
   -0.7500   -0.0000    0.0000 C   0  0  0  0  0  0  0  0  0  0  0  0
  1  4  1  0
  2  6  1  0
  3  6  2  0
  4  5  1  0
  4  6  1  0
M  END
>  <PUBCHEM_COMPOUND_CID>  (1) 
612

>  <PUBCHEM_COMPOUND_CANONICALIZED>  (1) 
1

>  <PUBCHEM_CACTVS_COMPLEXITY>  (1) 
59.1

>  <PUBCHEM_CACTVS_HBOND_ACCEPTOR>  (1) 
3

>  <PUBCHEM_CACTVS_HBOND_DONOR>  (1) 
2

>  <PUBCHEM_CACTVS_ROTATABLE_BOND>  (1) 
1

>  <PUBCHEM_CACTVS_SUBSKEYS>  (1) 
AAADcYBAMAAAAAAAAAAAAAAAAAAAAAAAAAAAAAAAAAAAAAAAAAAAGgAACAAACBSggAICCAAAAgAIAACQCAIAAAAAAAAAAAFAAAABEAAAAAAAQAAAAAABAAAAAAAAAAAAAAAAAAAAAAAAAAAAAAAAAAAAAA==

>  <PUBCHEM_IUPAC_OPENEYE_NAME>  (1) 
2-hydroxypropanoic acid

>  <PUBCHEM_IUPAC_CAS_NAME>  (1) 
2-hydroxypropanoic acid

>  <PUBCHEM_IUPAC_NAME_MARKUP>  (1) 
2-hydroxypropanoic acid

>  <PUBCHEM_IUPAC_NAME>  (1) 
2-hydroxypropanoic acid

>  <PUBCHEM_IUPAC_SYSTEMATIC_NAME>  (1) 
2-oxidanylpropanoic acid

>  <PUBCHEM_IUPAC_TRADITIONAL_NAME>  (1) 
lactic acid

>  <PUBCHEM_IUPAC_INCHI>  (1) 
InChI=1S/C3H6O3/c1-2(4)3(5)6/h2,4H,1H3,(H,5,6)

>  <PUBCHEM_IUPAC_INCHIKEY>  (1) 
JVTAAEKCZFNVCJ-UHFFFAOYSA-N

>  <PUBCHEM_XLOGP3>  (1) 
-0.7

>  <PUBCHEM_EXACT_MASS>  (1) 
90.031694

>  <PUBCHEM_MOLECULAR_FORMULA>  (1) 
C3H6O3

>  <PUBCHEM_MOLECULAR_WEIGHT>  (1) 
90.08

>  <PUBCHEM_OPENEYE_CAN_SMILES>  (1) 
CC(C(=O)O)O

>  <PUBCHEM_OPENEYE_ISO_SMILES>  (1) 
CC(C(=O)O)O

>  <PUBCHEM_CACTVS_TPSA>  (1) 
57.5

>  <PUBCHEM_MONOISOTOPIC_WEIGHT>  (1) 
90.031694

>  <PUBCHEM_TOTAL_CHARGE>  (1) 
0

>  <PUBCHEM_HEAVY_ATOM_COUNT>  (1) 
6

>  <PUBCHEM_ATOM_DEF_STEREO_COUNT>  (1) 
0

>  <PUBCHEM_ATOM_UDEF_STEREO_COUNT>  (1) 
1

>  <PUBCHEM_BOND_DEF_STEREO_COUNT>  (1) 
0

>  <PUBCHEM_BOND_UDEF_STEREO_COUNT>  (1) 
0

>  <PUBCHEM_ISOTOPIC_ATOM_COUNT>  (1) 
0

>  <PUBCHEM_COMPONENT_COUNT>  (1) 
1

>  <PUBCHEM_CACTVS_TAUTO_COUNT>  (1) 
-1

>  <PUBCHEM_COORDINATE_TYPE>  (1) 
1
5
255

>  <PUBCHEM_BONDANNOTATIONS>  (1) 
4  1  3

$$$$
