613
     RDKit          2D

 55 57  0  0  1  0  0  0  0  0999 V2000
  -14.2743   -0.6036    0.0000 S   0  0  0  0  0  0  0  0  0  0  0  0
    4.2005   -1.7748    0.0000 P   0  0  0  0  0  0  0  0  0  0  0  0
    3.7524    3.2417    0.0000 P   0  0  0  0  0  0  0  0  0  0  0  0
    1.1572    3.1205    0.0000 P   0  0  0  0  0  0  0  0  0  0  0  0
    7.8280    1.0396    0.0000 O   0  0  0  0  0  0  0  0  0  0  0  0
    5.6472   -2.1713    0.0000 O   0  0  0  0  0  0  0  0  0  0  0  0
    8.8674   -2.7001    0.0000 O   0  0  0  0  0  0  0  0  0  0  0  0
    5.0850    2.5531    0.0000 O   0  0  0  0  0  0  0  0  0  0  0  0
    4.5970   -0.3281    0.0000 O   0  0  0  0  0  0  0  0  0  0  0  0
    2.7539   -1.3783    0.0000 O   0  0  0  0  0  0  0  0  0  0  0  0
    2.4198    3.9303    0.0000 O   0  0  0  0  0  0  0  0  0  0  0  0
   -0.1055    2.3107    0.0000 O   0  0  0  0  0  0  0  0  0  0  0  0
    3.8041   -3.2215    0.0000 O   0  0  0  0  0  0  0  0  0  0  0  0
    4.4410    4.5743    0.0000 O   0  0  0  0  0  0  0  0  0  0  0  0
   -2.4907   -2.3056    0.0000 O   0  0  0  0  0  0  0  0  0  0  0  0
    3.0638    1.9091    0.0000 O   0  0  0  0  0  0  0  0  0  0  0  0
    1.9670    1.8579    0.0000 O   0  0  0  0  0  0  0  0  0  0  0  0
    0.3474    4.3831    0.0000 O   0  0  0  0  0  0  0  0  0  0  0  0
   -3.9633    1.3797    0.0000 O   0  0  0  0  0  0  0  0  0  0  0  0
   -9.1538    1.1372    0.0000 O   0  0  0  0  0  0  0  0  0  0  0  0
  -15.4670   -2.9117    0.0000 O   0  0  0  0  0  0  0  0  0  0  0  0
  -18.2722    1.4621    0.0000 O   0  0  0  0  0  0  0  0  0  0  0  0
  -15.6769    1.5834    0.0000 O   0  0  0  0  0  0  0  0  0  0  0  0
   10.3655    0.1991    0.0000 N   0  0  0  0  0  0  0  0  0  0  0  0
   12.5342    1.2887    0.0000 N   0  0  0  0  0  0  0  0  0  0  0  0
   11.3330   -2.3650    0.0000 N   0  0  0  0  0  0  0  0  0  0  0  0
   13.9267   -2.5157    0.0000 N   0  0  0  0  0  0  0  0  0  0  0  0
   15.3541   -0.3449    0.0000 N   0  0  0  0  0  0  0  0  0  0  0  0
   -5.1560   -0.9285    0.0000 N   0  0  0  0  0  0  0  0  0  0  0  0
  -10.3465   -1.1709    0.0000 N   0  0  0  0  0  0  0  0  0  0  0  0
    6.7139   -1.1166    0.0000 C   0  0  0  0  0  0  0  0  0  0  0  0
    8.1940   -1.3597    0.0000 C   0  0  0  0  0  0  0  0  0  0  0  0
    6.4876    0.3662    0.0000 C   0  0  0  0  0  0  0  0  0  0  0  0
    8.8826   -0.0271    0.0000 C   0  0  0  0  0  0  0  0  0  0  0  0
    5.1550    1.0548    0.0000 C   0  0  0  0  0  0  0  0  0  0  0  0
   11.4201   -0.8676    0.0000 C   0  0  0  0  0  0  0  0  0  0  0  0
   11.0540    1.5317    0.0000 C   0  0  0  0  0  0  0  0  0  0  0  0
   12.7604   -0.1942    0.0000 C   0  0  0  0  0  0  0  0  0  0  0  0
   -1.2981    0.0025    0.0000 C   0  0  0  0  0  0  0  0  0  0  0  0
   -2.5607   -0.8073    0.0000 C   0  0  0  0  0  0  0  0  0  0  0  0
   -0.0355    0.8123    0.0000 C   0  0  0  0  0  0  0  0  0  0  0  0
   14.0138   -1.0183    0.0000 C   0  0  0  0  0  0  0  0  0  0  0  0
   -2.1079    1.2652    0.0000 C   0  0  0  0  0  0  0  0  0  0  0  0
   -0.4883   -1.2601    0.0000 C   0  0  0  0  0  0  0  0  0  0  0  0
   12.5864   -3.1891    0.0000 C   0  0  0  0  0  0  0  0  0  0  0  0
   -3.8934   -0.1187    0.0000 C   0  0  0  0  0  0  0  0  0  0  0  0
   -6.4886   -0.2399    0.0000 C   0  0  0  0  0  0  0  0  0  0  0  0
   -7.7512   -1.0497    0.0000 C   0  0  0  0  0  0  0  0  0  0  0  0
   -9.0838   -0.3611    0.0000 C   0  0  0  0  0  0  0  0  0  0  0  0
  -11.6791   -0.4824    0.0000 C   0  0  0  0  0  0  0  0  0  0  0  0
  -12.9417   -1.2921    0.0000 C   0  0  0  0  0  0  0  0  0  0  0  0
  -15.5370   -1.4134    0.0000 C   0  0  0  0  0  0  0  0  0  0  0  0
  -16.8696   -0.7248    0.0000 C   0  0  0  0  0  0  0  0  0  0  0  0
  -18.1322   -1.5346    0.0000 C   0  0  0  0  0  0  0  0  0  0  0  0
  -16.9396    0.7736    0.0000 C   0  0  0  0  0  0  0  0  0  0  0  0
  1 51  1  0
  1 52  1  0
  2  6  1  0
  2  9  1  0
  2 10  1  0
  2 13  2  0
  3  8  1  0
  3 11  1  0
  3 14  1  0
  3 16  2  0
  4 11  1  0
  4 12  1  0
  4 17  1  0
  4 18  2  0
  5 33  1  0
  5 34  1  0
  6 31  1  0
  7 32  1  0
  8 35  1  0
 12 41  1  0
 15 40  1  0
 19 46  2  0
 20 49  2  0
 21 52  2  0
 22 55  1  0
 23 55  2  0
 24 34  1  0
 24 36  1  0
 24 37  1  0
 25 37  2  0
 25 38  1  0
 26 36  1  0
 26 45  2  0
 27 42  2  0
 27 45  1  0
 28 42  1  0
 29 46  1  0
 29 47  1  0
 30 49  1  0
 30 50  1  0
 31 32  1  0
 31 33  1  0
 32 34  1  0
 33 35  1  0
 36 38  2  0
 38 42  1  0
 39 40  1  0
 39 41  1  0
 39 43  1  0
 39 44  1  0
 40 46  1  0
 47 48  1  0
 48 49  1  0
 50 51  1  0
 52 53  1  0
 53 54  1  0
 53 55  1  0
M  END
>  <PUBCHEM_COMPOUND_CID>  (1) 
613

>  <PUBCHEM_COMPOUND_CANONICALIZED>  (1) 
1

>  <PUBCHEM_CACTVS_COMPLEXITY>  (1) 
1530

>  <PUBCHEM_CACTVS_HBOND_ACCEPTOR>  (1) 
24

>  <PUBCHEM_CACTVS_HBOND_DONOR>  (1) 
10

>  <PUBCHEM_CACTVS_ROTATABLE_BOND>  (1) 
22

>  <PUBCHEM_CACTVS_SUBSKEYS>  (1) 
AAADcfB7vgNAAAAAAAAAAAAAAAAAAWJAAAAsAAAAAAAAAFgB+AAAHgQQCCAADxzl1waH+L/MFxioQQfxfIKAgC0RELABUKFoVBCDWB5oyEAeRAgPNgLzACDyMAIJAAAAAAAAAAAAAAAAAAAAAAAAAAAAAA==

>  <PUBCHEM_IUPAC_OPENEYE_NAME>  (1) 
3-[2-[3-[[4-[[[5-(6-aminopurin-9-yl)-4-hydroxy-3-phosphonooxy-tetrahydrofuran-2-yl]methoxy-hydroxy-phosphoryl]oxy-hydroxy-phosphoryl]oxy-2-hydroxy-3,3-dimethyl-butanoyl]amino]propanoylamino]ethylsulfanyl]-2-methyl-3-oxo-propanoic acid

>  <PUBCHEM_IUPAC_CAS_NAME>  (1) 
3-[2-[[3-[[4-[[[5-(6-aminopurin-9-yl)-4-hydroxy-3-phosphonooxy-2-oxolanyl]methoxy-hydroxyphosphoryl]oxy-hydroxyphosphoryl]oxy-2-hydroxy-3,3-dimethyl-1-oxobutyl]amino]-1-oxopropyl]amino]ethylthio]-2-methyl-3-oxopropanoic acid

>  <PUBCHEM_IUPAC_NAME_MARKUP>  (1) 
3-[2-[3-[[4-[[[5-(6-aminopurin-9-yl)-4-hydroxy-3-phosphonooxyoxolan-2-yl]methoxy-hydroxyphosphoryl]oxy-hydroxyphosphoryl]oxy-2-hydroxy-3,3-dimethylbutanoyl]amino]propanoylamino]ethylsulfanyl]-2-methyl-3-oxopropanoic acid

>  <PUBCHEM_IUPAC_NAME>  (1) 
3-[2-[3-[[4-[[[5-(6-aminopurin-9-yl)-4-hydroxy-3-phosphonooxyoxolan-2-yl]methoxy-hydroxyphosphoryl]oxy-hydroxyphosphoryl]oxy-2-hydroxy-3,3-dimethylbutanoyl]amino]propanoylamino]ethylsulfanyl]-2-methyl-3-oxopropanoic acid

>  <PUBCHEM_IUPAC_SYSTEMATIC_NAME>  (1) 
3-[2-[3-[[4-[[[5-(6-aminopurin-9-yl)-4-oxidanyl-3-phosphonooxy-oxolan-2-yl]methoxy-oxidanyl-phosphoryl]oxy-oxidanyl-phosphoryl]oxy-3,3-dimethyl-2-oxidanyl-butanoyl]amino]propanoylamino]ethylsulfanyl]-2-methyl-3-oxidanylidene-propanoic acid

>  <PUBCHEM_IUPAC_TRADITIONAL_NAME>  (1) 
3-[2-[3-[[4-[[(5-adenin-9-yl-4-hydroxy-3-phosphonooxy-tetrahydrofuran-2-yl)methoxy-hydroxy-phosphoryl]oxy-hydroxy-phosphoryl]oxy-2-hydroxy-3,3-dimethyl-butanoyl]amino]propanoylamino]ethylthio]-3-keto-2-methyl-propionic acid

>  <PUBCHEM_IUPAC_INCHI>  (1) 
InChI=1S/C25H40N7O19P3S/c1-12(23(37)38)24(39)55-7-6-27-14(33)4-5-28-21(36)18(35)25(2,3)9-48-54(45,46)51-53(43,44)47-8-13-17(50-52(40,41)42)16(34)22(49-13)32-11-31-15-19(26)29-10-30-20(15)32/h10-13,16-18,22,34-35H,4-9H2,1-3H3,(H,27,33)(H,28,36)(H,37,38)(H,43,44)(H,45,46)(H2,26,29,30)(H2,40,41,42)

>  <PUBCHEM_IUPAC_INCHIKEY>  (1) 
MZFOKIKEPGUZEN-UHFFFAOYSA-N

>  <PUBCHEM_XLOGP3_AA>  (1) 
-5.4

>  <PUBCHEM_EXACT_MASS>  (1) 
867.131254

>  <PUBCHEM_MOLECULAR_FORMULA>  (1) 
C25H40N7O19P3S

>  <PUBCHEM_MOLECULAR_WEIGHT>  (1) 
867.6

>  <PUBCHEM_OPENEYE_CAN_SMILES>  (1) 
CC(C(=O)O)C(=O)SCCNC(=O)CCNC(=O)C(C(C)(C)COP(=O)(O)OP(=O)(O)OCC1C(C(C(O1)N2C=NC3=C(N=CN=C32)N)O)OP(=O)(O)O)O

>  <PUBCHEM_OPENEYE_ISO_SMILES>  (1) 
CC(C(=O)O)C(=O)SCCNC(=O)CCNC(=O)C(C(C)(C)COP(=O)(O)OP(=O)(O)OCC1C(C(C(O1)N2C=NC3=C(N=CN=C32)N)O)OP(=O)(O)O)O

>  <PUBCHEM_CACTVS_TPSA>  (1) 
426

>  <PUBCHEM_MONOISOTOPIC_WEIGHT>  (1) 
867.131254

>  <PUBCHEM_TOTAL_CHARGE>  (1) 
0

>  <PUBCHEM_HEAVY_ATOM_COUNT>  (1) 
55

>  <PUBCHEM_ATOM_DEF_STEREO_COUNT>  (1) 
0

>  <PUBCHEM_ATOM_UDEF_STEREO_COUNT>  (1) 
6

>  <PUBCHEM_BOND_DEF_STEREO_COUNT>  (1) 
0

>  <PUBCHEM_BOND_UDEF_STEREO_COUNT>  (1) 
0

>  <PUBCHEM_ISOTOPIC_ATOM_COUNT>  (1) 
0

>  <PUBCHEM_COMPONENT_COUNT>  (1) 
1

>  <PUBCHEM_CACTVS_TAUTO_COUNT>  (1) 
-1

>  <PUBCHEM_COORDINATE_TYPE>  (1) 
1
5
255

>  <PUBCHEM_BONDANNOTATIONS>  (1) 
40  15  3
34  24  3
24  36  8
24  37  8
25  37  8
25  38  8
26  36  8
26  45  8
27  42  8
27  45  8
33  35  3
36  38  8
38  42  8
53  54  3
31  6  3
32  7  3

$$$$
