614
     RDKit          2D

  8  8  0  0  1  0  0  0  0  0999 V2000
    2.2975   -1.2990    0.0000 O   0  0  0  0  0  0  0  0  0  0  0  0
    2.2975    1.2990    0.0000 O   0  0  0  0  0  0  0  0  0  0  0  0
   -0.8342   -1.2135    0.0000 N   0  0  0  0  0  0  0  0  0  0  0  0
    0.0475    0.0000    0.0000 C   0  0  0  0  0  0  0  0  0  0  0  0
   -0.8342    1.2135    0.0000 C   0  0  0  0  0  0  0  0  0  0  0  0
   -2.2608    0.7500    0.0000 C   0  0  0  0  0  0  0  0  0  0  0  0
   -2.2608   -0.7500    0.0000 C   0  0  0  0  0  0  0  0  0  0  0  0
    1.5475   -0.0000    0.0000 C   0  0  0  0  0  0  0  0  0  0  0  0
  1  8  1  0
  2  8  2  0
  3  4  1  0
  3  7  1  0
  4  5  1  0
  4  8  1  0
  5  6  1  0
  6  7  1  0
M  END
>  <PUBCHEM_COMPOUND_CID>  (1) 
614

>  <PUBCHEM_COMPOUND_CANONICALIZED>  (1) 
1

>  <PUBCHEM_CACTVS_COMPLEXITY>  (1) 
103

>  <PUBCHEM_CACTVS_HBOND_ACCEPTOR>  (1) 
3

>  <PUBCHEM_CACTVS_HBOND_DONOR>  (1) 
2

>  <PUBCHEM_CACTVS_ROTATABLE_BOND>  (1) 
1

>  <PUBCHEM_CACTVS_SUBSKEYS>  (1) 
AAADccBiMAAAAAAAAAAAAAAAAAAAAWAAAAAAAAAAAAAAAAAAAAAAHgAQCAAACCjBgAQACALAAgAIAACQCAAAAAAAAAAAAIGIAAACABIAgCAEQAAEEACQAACYEQAAAAAAAAAAAAAAAAAAAAAAAAAAAAAAAA==

>  <PUBCHEM_IUPAC_OPENEYE_NAME>  (1) 
pyrrolidine-2-carboxylic acid

>  <PUBCHEM_IUPAC_CAS_NAME>  (1) 
2-pyrrolidinecarboxylic acid

>  <PUBCHEM_IUPAC_NAME_MARKUP>  (1) 
pyrrolidine-2-carboxylic acid

>  <PUBCHEM_IUPAC_NAME>  (1) 
pyrrolidine-2-carboxylic acid

>  <PUBCHEM_IUPAC_SYSTEMATIC_NAME>  (1) 
pyrrolidine-2-carboxylic acid

>  <PUBCHEM_IUPAC_TRADITIONAL_NAME>  (1) 
proline

>  <PUBCHEM_IUPAC_INCHI>  (1) 
InChI=1S/C5H9NO2/c7-5(8)4-2-1-3-6-4/h4,6H,1-3H2,(H,7,8)

>  <PUBCHEM_IUPAC_INCHIKEY>  (1) 
ONIBWKKTOPOVIA-UHFFFAOYSA-N

>  <PUBCHEM_XLOGP3>  (1) 
-2.5

>  <PUBCHEM_EXACT_MASS>  (1) 
115.063329

>  <PUBCHEM_MOLECULAR_FORMULA>  (1) 
C5H9NO2

>  <PUBCHEM_MOLECULAR_WEIGHT>  (1) 
115.13

>  <PUBCHEM_OPENEYE_CAN_SMILES>  (1) 
C1CC(NC1)C(=O)O

>  <PUBCHEM_OPENEYE_ISO_SMILES>  (1) 
C1CC(NC1)C(=O)O

>  <PUBCHEM_CACTVS_TPSA>  (1) 
49.3

>  <PUBCHEM_MONOISOTOPIC_WEIGHT>  (1) 
115.063329

>  <PUBCHEM_TOTAL_CHARGE>  (1) 
0

>  <PUBCHEM_HEAVY_ATOM_COUNT>  (1) 
8

>  <PUBCHEM_ATOM_DEF_STEREO_COUNT>  (1) 
0

>  <PUBCHEM_ATOM_UDEF_STEREO_COUNT>  (1) 
1

>  <PUBCHEM_BOND_DEF_STEREO_COUNT>  (1) 
0

>  <PUBCHEM_BOND_UDEF_STEREO_COUNT>  (1) 
0

>  <PUBCHEM_ISOTOPIC_ATOM_COUNT>  (1) 
0

>  <PUBCHEM_COMPONENT_COUNT>  (1) 
1

>  <PUBCHEM_CACTVS_TAUTO_COUNT>  (1) 
-1

>  <PUBCHEM_COORDINATE_TYPE>  (1) 
1
5
255

>  <PUBCHEM_BONDANNOTATIONS>  (1) 
4  8  3

$$$$
