616
     RDKit          2D

 18 17  0  0  1  0  0  0  0  0999 V2000
   -4.9930   -0.0843    0.0000 P   0  0  0  0  0  0  0  0  0  0  0  0
    0.1069   -1.8844    0.0000 O   0  0  0  0  0  0  0  0  0  0  0  0
    1.6222    1.7835    0.0000 O   0  0  0  0  0  0  0  0  0  0  0  0
   -0.9715    1.9349    0.0000 O   0  0  0  0  0  0  0  0  0  0  0  0
    2.7006   -2.0358    0.0000 O   0  0  0  0  0  0  0  0  0  0  0  0
   -3.6525    0.5887    0.0000 O   0  0  0  0  0  0  0  0  0  0  0  0
    4.2158    1.6322    0.0000 O   0  0  0  0  0  0  0  0  0  0  0  0
    6.7221   -0.0166    0.0000 O   0  0  0  0  0  0  0  0  0  0  0  0
   -4.3200   -1.4248    0.0000 O   0  0  0  0  0  0  0  0  0  0  0  0
   -6.3335   -0.7574    0.0000 O   0  0  0  0  0  0  0  0  0  0  0  0
   -5.6661    1.2562    0.0000 O   0  0  0  0  0  0  0  0  0  0  0  0
    0.1943   -0.3870    0.0000 C   0  0  0  0  0  0  0  0  0  0  0  0
    1.5348    0.2861    0.0000 C   0  0  0  0  0  0  0  0  0  0  0  0
   -1.0589    0.4374    0.0000 C   0  0  0  0  0  0  0  0  0  0  0  0
    2.7880   -0.5383    0.0000 C   0  0  0  0  0  0  0  0  0  0  0  0
   -2.3994   -0.2357    0.0000 C   0  0  0  0  0  0  0  0  0  0  0  0
    4.1285    0.1348    0.0000 C   0  0  0  0  0  0  0  0  0  0  0  0
    5.3816   -0.6896    0.0000 C   0  0  0  0  0  0  0  0  0  0  0  0
  1  6  1  0
  1  9  1  0
  1 10  1  0
  1 11  2  0
  2 12  1  0
  3 13  1  0
  4 14  1  0
  5 15  1  0
  6 16  1  0
  7 17  2  0
  8 18  1  0
 12 13  1  0
 12 14  1  0
 13 15  1  0
 14 16  1  0
 15 17  1  0
 17 18  1  0
M  END
>  <PUBCHEM_COMPOUND_CID>  (1) 
616

>  <PUBCHEM_COMPOUND_CANONICALIZED>  (1) 
1

>  <PUBCHEM_CACTVS_COMPLEXITY>  (1) 
313

>  <PUBCHEM_CACTVS_HBOND_ACCEPTOR>  (1) 
10

>  <PUBCHEM_CACTVS_HBOND_DONOR>  (1) 
7

>  <PUBCHEM_CACTVS_ROTATABLE_BOND>  (1) 
8

>  <PUBCHEM_CACTVS_SUBSKEYS>  (1) 
AAADccBgPAIAAAAAAAAAAAAAAAAAAAAAAAAAAAAAAAAAAAAAAAAAGgAACCAACBSggAIAAAAAAxAIQIAQAIIAAAAAAAAAAAFAAAABEBYAAAAAQAAFIAABAAHK7CRAAAAAAAAAAAAAAAAAAAAAAAAAAAAAAA==

>  <PUBCHEM_IUPAC_OPENEYE_NAME>  (1) 
(2,3,4,5,7-pentahydroxy-6-oxo-heptyl) dihydrogen phosphate

>  <PUBCHEM_IUPAC_CAS_NAME>  (1) 
(2,3,4,5,7-pentahydroxy-6-oxoheptyl) dihydrogen phosphate

>  <PUBCHEM_IUPAC_NAME_MARKUP>  (1) 
(2,3,4,5,7-pentahydroxy-6-oxoheptyl) dihydrogen phosphate

>  <PUBCHEM_IUPAC_NAME>  (1) 
(2,3,4,5,7-pentahydroxy-6-oxoheptyl) dihydrogen phosphate

>  <PUBCHEM_IUPAC_SYSTEMATIC_NAME>  (1) 
[2,3,4,5,7-pentakis(oxidanyl)-6-oxidanylidene-heptyl] dihydrogen phosphate

>  <PUBCHEM_IUPAC_TRADITIONAL_NAME>  (1) 
(2,3,4,5,7-pentahydroxy-6-keto-heptyl) dihydrogen phosphate

>  <PUBCHEM_IUPAC_INCHI>  (1) 
InChI=1S/C7H15O10P/c8-1-3(9)5(11)7(13)6(12)4(10)2-17-18(14,15)16/h4-8,10-13H,1-2H2,(H2,14,15,16)

>  <PUBCHEM_IUPAC_INCHIKEY>  (1) 
JDTUMPKOJBQPKX-UHFFFAOYSA-N

>  <PUBCHEM_XLOGP3_AA>  (1) 
-5

>  <PUBCHEM_EXACT_MASS>  (1) 
290.040284

>  <PUBCHEM_MOLECULAR_FORMULA>  (1) 
C7H15O10P

>  <PUBCHEM_MOLECULAR_WEIGHT>  (1) 
290.16

>  <PUBCHEM_OPENEYE_CAN_SMILES>  (1) 
C(C(C(C(C(C(=O)CO)O)O)O)O)OP(=O)(O)O

>  <PUBCHEM_OPENEYE_ISO_SMILES>  (1) 
C(C(C(C(C(C(=O)CO)O)O)O)O)OP(=O)(O)O

>  <PUBCHEM_CACTVS_TPSA>  (1) 
185

>  <PUBCHEM_MONOISOTOPIC_WEIGHT>  (1) 
290.040284

>  <PUBCHEM_TOTAL_CHARGE>  (1) 
0

>  <PUBCHEM_HEAVY_ATOM_COUNT>  (1) 
18

>  <PUBCHEM_ATOM_DEF_STEREO_COUNT>  (1) 
0

>  <PUBCHEM_ATOM_UDEF_STEREO_COUNT>  (1) 
4

>  <PUBCHEM_BOND_DEF_STEREO_COUNT>  (1) 
0

>  <PUBCHEM_BOND_UDEF_STEREO_COUNT>  (1) 
0

>  <PUBCHEM_ISOTOPIC_ATOM_COUNT>  (1) 
0

>  <PUBCHEM_COMPONENT_COUNT>  (1) 
1

>  <PUBCHEM_CACTVS_TAUTO_COUNT>  (1) 
-1

>  <PUBCHEM_COORDINATE_TYPE>  (1) 
1
5
255

>  <PUBCHEM_BONDANNOTATIONS>  (1) 
12  2  3
13  3  3
14  4  3
15  5  3

$$$$
