620
     RDKit          2D

 26 28  0  0  1  0  0  0  0  0999 V2000
   -4.4481    1.0598    0.0000 P   0  0  0  0  0  0  0  0  0  0  0  0
   -6.8388    0.0426    0.0000 P   0  0  0  0  0  0  0  0  0  0  0  0
    0.1392    0.4143    0.0000 O   0  0  0  0  0  0  0  0  0  0  0  0
   -0.7873   -3.3549    0.0000 O   0  0  0  0  0  0  0  0  0  0  0  0
   -2.9591    0.8782    0.0000 O   0  0  0  0  0  0  0  0  0  0  0  0
   -5.9370    1.2413    0.0000 O   0  0  0  0  0  0  0  0  0  0  0  0
   -4.2665    2.5488    0.0000 O   0  0  0  0  0  0  0  0  0  0  0  0
   -4.6296   -0.4292    0.0000 O   0  0  0  0  0  0  0  0  0  0  0  0
   -5.6400   -0.8591    0.0000 O   0  0  0  0  0  0  0  0  0  0  0  0
   -7.7405   -1.1561    0.0000 O   0  0  0  0  0  0  0  0  0  0  0  0
   -8.0375    0.9443    0.0000 O   0  0  0  0  0  0  0  0  0  0  0  0
    2.8105    0.5098    0.0000 N   0  0  0  0  0  0  0  0  0  0  0  0
    4.4643    2.2862    0.0000 N   0  0  0  0  0  0  0  0  0  0  0  0
    4.6103   -1.5571    0.0000 N   0  0  0  0  0  0  0  0  0  0  0  0
    7.0942   -0.7954    0.0000 N   0  0  0  0  0  0  0  0  0  0  0  0
    7.6765    1.7366    0.0000 N   0  0  0  0  0  0  0  0  0  0  0  0
   -0.1546   -1.9949    0.0000 C   0  0  0  0  0  0  0  0  0  0  0  0
   -0.8829   -0.6836    0.0000 C   0  0  0  0  0  0  0  0  0  0  0  0
    1.4992   -0.2185    0.0000 C   0  0  0  0  0  0  0  0  0  0  0  0
    1.3177   -1.7075    0.0000 C   0  0  0  0  0  0  0  0  0  0  0  0
   -2.3718   -0.5020    0.0000 C   0  0  0  0  0  0  0  0  0  0  0  0
    4.1705   -0.1230    0.0000 C   0  0  0  0  0  0  0  0  0  0  0  0
    2.9921    1.9988    0.0000 C   0  0  0  0  0  0  0  0  0  0  0  0
    5.1926    0.9749    0.0000 C   0  0  0  0  0  0  0  0  0  0  0  0
    6.6544    0.6387    0.0000 C   0  0  0  0  0  0  0  0  0  0  0  0
    6.0721   -1.8933    0.0000 C   0  0  0  0  0  0  0  0  0  0  0  0
  1  5  1  0
  1  6  1  0
  1  7  1  0
  1  8  2  0
  2  6  1  0
  2  9  1  0
  2 10  1  0
  2 11  2  0
  3 18  1  0
  3 19  1  0
  4 17  1  0
  5 21  1  0
 12 19  1  0
 12 22  1  0
 12 23  1  0
 13 23  2  0
 13 24  1  0
 14 22  1  0
 14 26  2  0
 15 25  2  0
 15 26  1  0
 16 25  1  0
 17 18  1  0
 17 20  1  0
 18 21  1  0
 19 20  1  0
 22 24  2  0
 24 25  1  0
M  END
>  <PUBCHEM_COMPOUND_CID>  (1) 
620

>  <PUBCHEM_COMPOUND_CANONICALIZED>  (1) 
1

>  <PUBCHEM_CACTVS_COMPLEXITY>  (1) 
607

>  <PUBCHEM_CACTVS_HBOND_ACCEPTOR>  (1) 
13

>  <PUBCHEM_CACTVS_HBOND_DONOR>  (1) 
5

>  <PUBCHEM_CACTVS_ROTATABLE_BOND>  (1) 
6

>  <PUBCHEM_CACTVS_SUBSKEYS>  (1) 
AAADccBzvAMAAAAAAAAAAAAAAAAAAWJAAAAsAAAAAAAAAFgB+AAAHgAQCCAACBzhlwYF8L9MFxCgQQZhZICAgC0REKABUCAoVBCBWAJAyEAeRAgPAALDACCwMAIAAAAAAAAAAAAAAAAAAAAAAAAAAAAAAA==

>  <PUBCHEM_IUPAC_OPENEYE_NAME>  (1) 
[5-(6-aminopurin-9-yl)-3-hydroxy-tetrahydrofuran-2-yl]methyl phosphono hydrogen phosphate

>  <PUBCHEM_IUPAC_CAS_NAME>  (1) 
[5-(6-aminopurin-9-yl)-3-hydroxy-2-oxolanyl]methyl phosphono hydrogen phosphate

>  <PUBCHEM_IUPAC_NAME_MARKUP>  (1) 
[5-(6-aminopurin-9-yl)-3-hydroxyoxolan-2-yl]methyl phosphono hydrogen phosphate

>  <PUBCHEM_IUPAC_NAME>  (1) 
[5-(6-aminopurin-9-yl)-3-hydroxyoxolan-2-yl]methyl phosphono hydrogen phosphate

>  <PUBCHEM_IUPAC_SYSTEMATIC_NAME>  (1) 
[5-(6-aminopurin-9-yl)-3-oxidanyl-oxolan-2-yl]methyl phosphono hydrogen phosphate

>  <PUBCHEM_IUPAC_TRADITIONAL_NAME>  (1) 
(5-adenin-9-yl-3-hydroxy-tetrahydrofuran-2-yl)methyl phosphono hydrogen phosphate

>  <PUBCHEM_IUPAC_INCHI>  (1) 
InChI=1S/C10H15N5O9P2/c11-9-8-10(13-3-12-9)15(4-14-8)7-1-5(16)6(23-7)2-22-26(20,21)24-25(17,18)19/h3-7,16H,1-2H2,(H,20,21)(H2,11,12,13)(H2,17,18,19)

>  <PUBCHEM_IUPAC_INCHIKEY>  (1) 
DAEAPNUQQAICNR-UHFFFAOYSA-N

>  <PUBCHEM_XLOGP3>  (1) 
-3.3

>  <PUBCHEM_EXACT_MASS>  (1) 
411.034501

>  <PUBCHEM_MOLECULAR_FORMULA>  (1) 
C10H15N5O9P2

>  <PUBCHEM_MOLECULAR_WEIGHT>  (1) 
411.2

>  <PUBCHEM_OPENEYE_CAN_SMILES>  (1) 
C1C(C(OC1N2C=NC3=C(N=CN=C32)N)COP(=O)(O)OP(=O)(O)O)O

>  <PUBCHEM_OPENEYE_ISO_SMILES>  (1) 
C1C(C(OC1N2C=NC3=C(N=CN=C32)N)COP(=O)(O)OP(=O)(O)O)O

>  <PUBCHEM_CACTVS_TPSA>  (1) 
212

>  <PUBCHEM_MONOISOTOPIC_WEIGHT>  (1) 
411.034501

>  <PUBCHEM_TOTAL_CHARGE>  (1) 
0

>  <PUBCHEM_HEAVY_ATOM_COUNT>  (1) 
26

>  <PUBCHEM_ATOM_DEF_STEREO_COUNT>  (1) 
0

>  <PUBCHEM_ATOM_UDEF_STEREO_COUNT>  (1) 
3

>  <PUBCHEM_BOND_DEF_STEREO_COUNT>  (1) 
0

>  <PUBCHEM_BOND_UDEF_STEREO_COUNT>  (1) 
0

>  <PUBCHEM_ISOTOPIC_ATOM_COUNT>  (1) 
0

>  <PUBCHEM_COMPONENT_COUNT>  (1) 
1

>  <PUBCHEM_CACTVS_TAUTO_COUNT>  (1) 
-1

>  <PUBCHEM_COORDINATE_TYPE>  (1) 
1
5
255

>  <PUBCHEM_BONDANNOTATIONS>  (1) 
19  12  3
12  22  8
12  23  8
13  23  8
13  24  8
14  22  8
14  26  8
15  25  8
15  26  8
18  21  3
22  24  8
24  25  8
17  4  3

$$$$
