622
     RDKit          2D

 30 32  0  0  1  0  0  0  0  0999 V2000
   -3.3523    1.7873    0.0000 P   0  0  0  0  0  0  0  0  0  0  0  0
   -5.8325    1.0137    0.0000 P   0  0  0  0  0  0  0  0  0  0  0  0
   -6.4027   -1.5210    0.0000 P   0  0  0  0  0  0  0  0  0  0  0  0
    1.1477    0.6874    0.0000 O   0  0  0  0  0  0  0  0  0  0  0  0
   -0.1502   -2.9705    0.0000 O   0  0  0  0  0  0  0  0  0  0  0  0
   -1.8889    1.4581    0.0000 O   0  0  0  0  0  0  0  0  0  0  0  0
   -4.8157    2.1165    0.0000 O   0  0  0  0  0  0  0  0  0  0  0  0
   -3.0231    3.2507    0.0000 O   0  0  0  0  0  0  0  0  0  0  0  0
   -3.6815    0.3239    0.0000 O   0  0  0  0  0  0  0  0  0  0  0  0
   -6.8493   -0.0890    0.0000 O   0  0  0  0  0  0  0  0  0  0  0  0
   -4.7298   -0.0031    0.0000 O   0  0  0  0  0  0  0  0  0  0  0  0
   -6.9353    2.0305    0.0000 O   0  0  0  0  0  0  0  0  0  0  0  0
   -4.9707   -1.0744    0.0000 O   0  0  0  0  0  0  0  0  0  0  0  0
   -5.9561   -2.9530    0.0000 O   0  0  0  0  0  0  0  0  0  0  0  0
   -7.8347   -1.9676    0.0000 O   0  0  0  0  0  0  0  0  0  0  0  0
    3.8152    0.5160    0.0000 N   0  0  0  0  0  0  0  0  0  0  0  0
    5.6379    2.1186    0.0000 N   0  0  0  0  0  0  0  0  0  0  0  0
    5.3998   -1.7201    0.0000 N   0  0  0  0  0  0  0  0  0  0  0  0
    7.9473   -1.2100    0.0000 N   0  0  0  0  0  0  0  0  0  0  0  0
    8.7793    1.2512    0.0000 N   0  0  0  0  0  0  0  0  0  0  0  0
    0.6151   -1.6805    0.0000 C   0  0  0  0  0  0  0  0  0  0  0  0
    0.0212   -0.3030    0.0000 C   0  0  0  0  0  0  0  0  0  0  0  0
    2.4378   -0.0779    0.0000 C   0  0  0  0  0  0  0  0  0  0  0  0
    2.1086   -1.5413    0.0000 C   0  0  0  0  0  0  0  0  0  0  0  0
   -1.4422    0.0262    0.0000 C   0  0  0  0  0  0  0  0  0  0  0  0
    5.1053   -0.2493    0.0000 C   0  0  0  0  0  0  0  0  0  0  0  0
    4.1444    1.9794    0.0000 C   0  0  0  0  0  0  0  0  0  0  0  0
    6.2318    0.7411    0.0000 C   0  0  0  0  0  0  0  0  0  0  0  0
    7.6528    0.2608    0.0000 C   0  0  0  0  0  0  0  0  0  0  0  0
    6.8208   -2.2005    0.0000 C   0  0  0  0  0  0  0  0  0  0  0  0
  1  6  1  0
  1  7  1  0
  1  8  1  0
  1  9  2  0
  2  7  1  0
  2 10  1  0
  2 11  1  0
  2 12  2  0
  3 10  1  0
  3 13  1  0
  3 14  1  0
  3 15  2  0
  4 22  1  0
  4 23  1  0
  5 21  1  0
  6 25  1  0
 16 23  1  0
 16 26  1  0
 16 27  1  0
 17 27  2  0
 17 28  1  0
 18 26  1  0
 18 30  2  0
 19 29  2  0
 19 30  1  0
 20 29  1  0
 21 22  1  0
 21 24  1  0
 22 25  1  0
 23 24  1  0
 26 28  2  0
 28 29  1  0
M  END
>  <PUBCHEM_COMPOUND_CID>  (1) 
622

>  <PUBCHEM_COMPOUND_CANONICALIZED>  (1) 
1

>  <PUBCHEM_CACTVS_COMPLEXITY>  (1) 
769

>  <PUBCHEM_CACTVS_HBOND_ACCEPTOR>  (1) 
16

>  <PUBCHEM_CACTVS_HBOND_DONOR>  (1) 
6

>  <PUBCHEM_CACTVS_ROTATABLE_BOND>  (1) 
8

>  <PUBCHEM_CACTVS_SUBSKEYS>  (1) 
AAADceBzvAMAAAAAAAAAAAAAAAAAAWJAAAAsAAAAAAAAAFgB+AAAHgAQCCAACBzhlwYF8L9MFxCgQQZhZICAgC0REKABUCAoVBCBWAJAyEAeRAgPAALDACCwMAIAAAAAAAAAAAAAAAAAAAAAAAAAAAAAAA==

>  <PUBCHEM_IUPAC_OPENEYE_NAME>  (1) 
[[5-(6-aminopurin-9-yl)-3-hydroxy-tetrahydrofuran-2-yl]methoxy-hydroxy-phosphoryl] phosphono hydrogen phosphate

>  <PUBCHEM_IUPAC_CAS_NAME>  (1) 
[[5-(6-aminopurin-9-yl)-3-hydroxy-2-oxolanyl]methoxy-hydroxyphosphoryl] phosphono hydrogen phosphate

>  <PUBCHEM_IUPAC_NAME_MARKUP>  (1) 
[[5-(6-aminopurin-9-yl)-3-hydroxyoxolan-2-yl]methoxy-hydroxyphosphoryl] phosphono hydrogen phosphate

>  <PUBCHEM_IUPAC_NAME>  (1) 
[[5-(6-aminopurin-9-yl)-3-hydroxyoxolan-2-yl]methoxy-hydroxyphosphoryl] phosphono hydrogen phosphate

>  <PUBCHEM_IUPAC_SYSTEMATIC_NAME>  (1) 
[[5-(6-aminopurin-9-yl)-3-oxidanyl-oxolan-2-yl]methoxy-oxidanyl-phosphoryl] phosphono hydrogen phosphate

>  <PUBCHEM_IUPAC_TRADITIONAL_NAME>  (1) 
[(5-adenin-9-yl-3-hydroxy-tetrahydrofuran-2-yl)methoxy-hydroxy-phosphoryl] phosphono hydrogen phosphate

>  <PUBCHEM_IUPAC_INCHI>  (1) 
InChI=1S/C10H16N5O12P3/c11-9-8-10(13-3-12-9)15(4-14-8)7-1-5(16)6(25-7)2-24-29(20,21)27-30(22,23)26-28(17,18)19/h3-7,16H,1-2H2,(H,20,21)(H,22,23)(H2,11,12,13)(H2,17,18,19)

>  <PUBCHEM_IUPAC_INCHIKEY>  (1) 
SUYVUBYJARFZHO-UHFFFAOYSA-N

>  <PUBCHEM_XLOGP3>  (1) 
-4.4

>  <PUBCHEM_EXACT_MASS>  (1) 
491.000832

>  <PUBCHEM_MOLECULAR_FORMULA>  (1) 
C10H16N5O12P3

>  <PUBCHEM_MOLECULAR_WEIGHT>  (1) 
491.18

>  <PUBCHEM_OPENEYE_CAN_SMILES>  (1) 
C1C(C(OC1N2C=NC3=C(N=CN=C32)N)COP(=O)(O)OP(=O)(O)OP(=O)(O)O)O

>  <PUBCHEM_OPENEYE_ISO_SMILES>  (1) 
C1C(C(OC1N2C=NC3=C(N=CN=C32)N)COP(=O)(O)OP(=O)(O)OP(=O)(O)O)O

>  <PUBCHEM_CACTVS_TPSA>  (1) 
259

>  <PUBCHEM_MONOISOTOPIC_WEIGHT>  (1) 
491.000832

>  <PUBCHEM_TOTAL_CHARGE>  (1) 
0

>  <PUBCHEM_HEAVY_ATOM_COUNT>  (1) 
30

>  <PUBCHEM_ATOM_DEF_STEREO_COUNT>  (1) 
0

>  <PUBCHEM_ATOM_UDEF_STEREO_COUNT>  (1) 
3

>  <PUBCHEM_BOND_DEF_STEREO_COUNT>  (1) 
0

>  <PUBCHEM_BOND_UDEF_STEREO_COUNT>  (1) 
0

>  <PUBCHEM_ISOTOPIC_ATOM_COUNT>  (1) 
0

>  <PUBCHEM_COMPONENT_COUNT>  (1) 
1

>  <PUBCHEM_CACTVS_TAUTO_COUNT>  (1) 
-1

>  <PUBCHEM_COORDINATE_TYPE>  (1) 
1
5
255

>  <PUBCHEM_BONDANNOTATIONS>  (1) 
23  16  3
16  26  8
16  27  8
17  27  8
17  28  8
18  26  8
18  30  8
19  29  8
19  30  8
22  25  3
26  28  8
28  29  8
21  5  3

$$$$
