623
     RDKit          2D

 24 25  0  0  1  0  0  0  0  0999 V2000
   -3.7043    1.1279    0.0000 P   0  0  0  0  0  0  0  0  0  0  0  0
   -6.1596    0.2788    0.0000 P   0  0  0  0  0  0  0  0  0  0  0  0
    0.8273    0.1663    0.0000 O   0  0  0  0  0  0  0  0  0  0  0  0
   -0.3580   -3.5297    0.0000 O   0  0  0  0  0  0  0  0  0  0  0  0
   -2.2314    0.8437    0.0000 O   0  0  0  0  0  0  0  0  0  0  0  0
    4.6000   -2.2765    0.0000 O   0  0  0  0  0  0  0  0  0  0  0  0
   -5.1771    1.4122    0.0000 O   0  0  0  0  0  0  0  0  0  0  0  0
   -3.4200    2.6008    0.0000 O   0  0  0  0  0  0  0  0  0  0  0  0
   -3.9885   -0.3449    0.0000 O   0  0  0  0  0  0  0  0  0  0  0  0
   -5.0263   -0.7038    0.0000 O   0  0  0  0  0  0  0  0  0  0  0  0
   -7.1422   -0.8546    0.0000 O   0  0  0  0  0  0  0  0  0  0  0  0
   -7.2930    1.2614    0.0000 O   0  0  0  0  0  0  0  0  0  0  0  0
    3.4988    0.0766    0.0000 N   0  0  0  0  0  0  0  0  0  0  0  0
    6.0873   -0.1463    0.0000 N   0  0  0  0  0  0  0  0  0  0  0  0
    7.5746    1.9839    0.0000 N   0  0  0  0  0  0  0  0  0  0  0  0
    0.3674   -2.2168    0.0000 C   0  0  0  0  0  0  0  0  0  0  0  0
   -0.2684   -0.8581    0.0000 C   0  0  0  0  0  0  0  0  0  0  0  0
    1.8560   -2.0319    0.0000 C   0  0  0  0  0  0  0  0  0  0  0  0
    2.1402   -0.5591    0.0000 C   0  0  0  0  0  0  0  0  0  0  0  0
   -1.7412   -0.5739    0.0000 C   0  0  0  0  0  0  0  0  0  0  0  0
    3.6275    1.5711    0.0000 C   0  0  0  0  0  0  0  0  0  0  0  0
    4.7287   -0.7821    0.0000 C   0  0  0  0  0  0  0  0  0  0  0  0
    4.9861    2.2069    0.0000 C   0  0  0  0  0  0  0  0  0  0  0  0
    6.2160    1.3481    0.0000 C   0  0  0  0  0  0  0  0  0  0  0  0
  1  5  1  0
  1  7  1  0
  1  8  1  0
  1  9  2  0
  2  7  1  0
  2 10  1  0
  2 11  1  0
  2 12  2  0
  3 17  1  0
  3 19  1  0
  4 16  1  0
  5 20  1  0
  6 22  2  0
 13 19  1  0
 13 21  1  0
 13 22  1  0
 14 22  1  0
 14 24  2  0
 15 24  1  0
 16 17  1  0
 16 18  1  0
 17 20  1  0
 18 19  1  0
 21 23  2  0
 23 24  1  0
M  END
>  <PUBCHEM_COMPOUND_CID>  (1) 
623

>  <PUBCHEM_COMPOUND_CANONICALIZED>  (1) 
1

>  <PUBCHEM_CACTVS_COMPLEXITY>  (1) 
660

>  <PUBCHEM_CACTVS_HBOND_ACCEPTOR>  (1) 
10

>  <PUBCHEM_CACTVS_HBOND_DONOR>  (1) 
5

>  <PUBCHEM_CACTVS_ROTATABLE_BOND>  (1) 
6

>  <PUBCHEM_CACTVS_SUBSKEYS>  (1) 
AAADccBzPAMAAAAAAAAAAAAAAAAAASAAAAAgAAAAAAAAAAAAAAAAHgAQCCAACBThgAYBAANABxCoQCJmdICAAAEAAgAIAAAYABCBEAIAgAAOQAAHFgIDAACwMAIAAAAAAAAAAAAAAAAAAAAAAAAAAAAAAA==

>  <PUBCHEM_IUPAC_OPENEYE_NAME>  (1) 
[5-(4-amino-2-oxo-pyrimidin-1-yl)-3-hydroxy-tetrahydrofuran-2-yl]methyl phosphono hydrogen phosphate

>  <PUBCHEM_IUPAC_CAS_NAME>  (1) 
[5-(4-amino-2-oxo-1-pyrimidinyl)-3-hydroxy-2-oxolanyl]methyl phosphono hydrogen phosphate

>  <PUBCHEM_IUPAC_NAME_MARKUP>  (1) 
[5-(4-amino-2-oxopyrimidin-1-yl)-3-hydroxyoxolan-2-yl]methyl phosphono hydrogen phosphate

>  <PUBCHEM_IUPAC_NAME>  (1) 
[5-(4-amino-2-oxopyrimidin-1-yl)-3-hydroxyoxolan-2-yl]methyl phosphono hydrogen phosphate

>  <PUBCHEM_IUPAC_SYSTEMATIC_NAME>  (1) 
[5-(4-azanyl-2-oxidanylidene-pyrimidin-1-yl)-3-oxidanyl-oxolan-2-yl]methyl phosphono hydrogen phosphate

>  <PUBCHEM_IUPAC_TRADITIONAL_NAME>  (1) 
[5-(4-amino-2-keto-pyrimidin-1-yl)-3-hydroxy-tetrahydrofuran-2-yl]methyl phosphono hydrogen phosphate

>  <PUBCHEM_IUPAC_INCHI>  (1) 
InChI=1S/C9H15N3O10P2/c10-7-1-2-12(9(14)11-7)8-3-5(13)6(21-8)4-20-24(18,19)22-23(15,16)17/h1-2,5-6,8,13H,3-4H2,(H,18,19)(H2,10,11,14)(H2,15,16,17)

>  <PUBCHEM_IUPAC_INCHIKEY>  (1) 
FTDHDKPUHBLBTL-UHFFFAOYSA-N

>  <PUBCHEM_XLOGP3>  (1) 
-4.5

>  <PUBCHEM_EXACT_MASS>  (1) 
387.023268

>  <PUBCHEM_MOLECULAR_FORMULA>  (1) 
C9H15N3O10P2

>  <PUBCHEM_MOLECULAR_WEIGHT>  (1) 
387.18

>  <PUBCHEM_OPENEYE_CAN_SMILES>  (1) 
C1C(C(OC1N2C=CC(=NC2=O)N)COP(=O)(O)OP(=O)(O)O)O

>  <PUBCHEM_OPENEYE_ISO_SMILES>  (1) 
C1C(C(OC1N2C=CC(=NC2=O)N)COP(=O)(O)OP(=O)(O)O)O

>  <PUBCHEM_CACTVS_TPSA>  (1) 
201

>  <PUBCHEM_MONOISOTOPIC_WEIGHT>  (1) 
387.023268

>  <PUBCHEM_TOTAL_CHARGE>  (1) 
0

>  <PUBCHEM_HEAVY_ATOM_COUNT>  (1) 
24

>  <PUBCHEM_ATOM_DEF_STEREO_COUNT>  (1) 
0

>  <PUBCHEM_ATOM_UDEF_STEREO_COUNT>  (1) 
3

>  <PUBCHEM_BOND_DEF_STEREO_COUNT>  (1) 
0

>  <PUBCHEM_BOND_UDEF_STEREO_COUNT>  (1) 
0

>  <PUBCHEM_ISOTOPIC_ATOM_COUNT>  (1) 
0

>  <PUBCHEM_COMPONENT_COUNT>  (1) 
1

>  <PUBCHEM_CACTVS_TAUTO_COUNT>  (1) 
-1

>  <PUBCHEM_COORDINATE_TYPE>  (1) 
1
5
255

>  <PUBCHEM_BONDANNOTATIONS>  (1) 
19  13  3
13  21  8
13  22  8
14  22  8
14  24  8
17  20  3
21  23  8
23  24  8
16  4  3

$$$$
