625
     RDKit          2D

 28 29  0  0  1  0  0  0  0  0999 V2000
   -2.5949    1.7908    0.0000 P   0  0  0  0  0  0  0  0  0  0  0  0
   -5.1270    1.2090    0.0000 P   0  0  0  0  0  0  0  0  0  0  0  0
   -5.8892   -1.2748    0.0000 P   0  0  0  0  0  0  0  0  0  0  0  0
    1.8079    0.3503    0.0000 O   0  0  0  0  0  0  0  0  0  0  0  0
    0.2342   -3.1978    0.0000 O   0  0  0  0  0  0  0  0  0  0  0  0
   -1.1609    1.3508    0.0000 O   0  0  0  0  0  0  0  0  0  0  0  0
   -4.0289    2.2309    0.0000 O   0  0  0  0  0  0  0  0  0  0  0  0
    5.2978   -2.4818    0.0000 O   0  0  0  0  0  0  0  0  0  0  0  0
   -2.1549    3.2248    0.0000 O   0  0  0  0  0  0  0  0  0  0  0  0
   -3.0350    0.3568    0.0000 O   0  0  0  0  0  0  0  0  0  0  0  0
   -6.2251    0.1871    0.0000 O   0  0  0  0  0  0  0  0  0  0  0  0
   -4.1052    0.1109    0.0000 O   0  0  0  0  0  0  0  0  0  0  0  0
   -6.1489    2.3071    0.0000 O   0  0  0  0  0  0  0  0  0  0  0  0
   -4.4273   -0.9388    0.0000 O   0  0  0  0  0  0  0  0  0  0  0  0
   -5.5533   -2.7367    0.0000 O   0  0  0  0  0  0  0  0  0  0  0  0
   -7.3511   -1.6107    0.0000 O   0  0  0  0  0  0  0  0  0  0  0  0
    4.4545   -0.0244    0.0000 N   0  0  0  0  0  0  0  0  0  0  0  0
    7.0043   -0.5228    0.0000 N   0  0  0  0  0  0  0  0  0  0  0  0
    8.7108    1.4362    0.0000 N   0  0  0  0  0  0  0  0  0  0  0  0
    1.0959   -1.9699    0.0000 C   0  0  0  0  0  0  0  0  0  0  0  0
    0.6090   -0.5512    0.0000 C   0  0  0  0  0  0  0  0  0  0  0  0
    2.5957   -1.9453    0.0000 C   0  0  0  0  0  0  0  0  0  0  0  0
    3.0357   -0.5113    0.0000 C   0  0  0  0  0  0  0  0  0  0  0  0
   -0.8250   -0.1111    0.0000 C   0  0  0  0  0  0  0  0  0  0  0  0
    4.7422    1.4477    0.0000 C   0  0  0  0  0  0  0  0  0  0  0  0
    5.5855   -1.0097    0.0000 C   0  0  0  0  0  0  0  0  0  0  0  0
    6.1610    1.9346    0.0000 C   0  0  0  0  0  0  0  0  0  0  0  0
    7.2921    0.9493    0.0000 C   0  0  0  0  0  0  0  0  0  0  0  0
  1  6  1  0
  1  7  1  0
  1  9  1  0
  1 10  2  0
  2  7  1  0
  2 11  1  0
  2 12  1  0
  2 13  2  0
  3 11  1  0
  3 14  1  0
  3 15  1  0
  3 16  2  0
  4 21  1  0
  4 23  1  0
  5 20  1  0
  6 24  1  0
  8 26  2  0
 17 23  1  0
 17 25  1  0
 17 26  1  0
 18 26  1  0
 18 28  2  0
 19 28  1  0
 20 21  1  0
 20 22  1  0
 21 24  1  0
 22 23  1  0
 25 27  2  0
 27 28  1  0
M  END
>  <PUBCHEM_COMPOUND_CID>  (1) 
625

>  <PUBCHEM_COMPOUND_CANONICALIZED>  (1) 
1

>  <PUBCHEM_CACTVS_COMPLEXITY>  (1) 
823

>  <PUBCHEM_CACTVS_HBOND_ACCEPTOR>  (1) 
13

>  <PUBCHEM_CACTVS_HBOND_DONOR>  (1) 
6

>  <PUBCHEM_CACTVS_ROTATABLE_BOND>  (1) 
8

>  <PUBCHEM_CACTVS_SUBSKEYS>  (1) 
AAADceBzPAMAAAAAAAAAAAAAAAAAASAAAAAgAAAAAAAAAAAAAAAAHgAQCCAACBThgAYBAANABxCoQCJmdICAAAEAAgAIAAAYABCBEAIAgAAOQAAHFgIDAACwMAIAAAAAAAAAAAAAAAAAAAAAAAAAAAAAAA==

>  <PUBCHEM_IUPAC_OPENEYE_NAME>  (1) 
[[5-(4-amino-2-oxo-pyrimidin-1-yl)-3-hydroxy-tetrahydrofuran-2-yl]methoxy-hydroxy-phosphoryl] phosphono hydrogen phosphate

>  <PUBCHEM_IUPAC_CAS_NAME>  (1) 
[[5-(4-amino-2-oxo-1-pyrimidinyl)-3-hydroxy-2-oxolanyl]methoxy-hydroxyphosphoryl] phosphono hydrogen phosphate

>  <PUBCHEM_IUPAC_NAME_MARKUP>  (1) 
[[5-(4-amino-2-oxopyrimidin-1-yl)-3-hydroxyoxolan-2-yl]methoxy-hydroxyphosphoryl] phosphono hydrogen phosphate

>  <PUBCHEM_IUPAC_NAME>  (1) 
[[5-(4-amino-2-oxopyrimidin-1-yl)-3-hydroxyoxolan-2-yl]methoxy-hydroxyphosphoryl] phosphono hydrogen phosphate

>  <PUBCHEM_IUPAC_SYSTEMATIC_NAME>  (1) 
[[5-(4-azanyl-2-oxidanylidene-pyrimidin-1-yl)-3-oxidanyl-oxolan-2-yl]methoxy-oxidanyl-phosphoryl] phosphono hydrogen phosphate

>  <PUBCHEM_IUPAC_TRADITIONAL_NAME>  (1) 
[[5-(4-amino-2-keto-pyrimidin-1-yl)-3-hydroxy-tetrahydrofuran-2-yl]methoxy-hydroxy-phosphoryl] phosphono hydrogen phosphate

>  <PUBCHEM_IUPAC_INCHI>  (1) 
InChI=1S/C9H16N3O13P3/c10-7-1-2-12(9(14)11-7)8-3-5(13)6(23-8)4-22-27(18,19)25-28(20,21)24-26(15,16)17/h1-2,5-6,8,13H,3-4H2,(H,18,19)(H,20,21)(H2,10,11,14)(H2,15,16,17)

>  <PUBCHEM_IUPAC_INCHIKEY>  (1) 
RGWHQCVHVJXOKC-UHFFFAOYSA-N

>  <PUBCHEM_XLOGP3>  (1) 
-5.6

>  <PUBCHEM_EXACT_MASS>  (1) 
466.989599

>  <PUBCHEM_MOLECULAR_FORMULA>  (1) 
C9H16N3O13P3

>  <PUBCHEM_MOLECULAR_WEIGHT>  (1) 
467.16

>  <PUBCHEM_OPENEYE_CAN_SMILES>  (1) 
C1C(C(OC1N2C=CC(=NC2=O)N)COP(=O)(O)OP(=O)(O)OP(=O)(O)O)O

>  <PUBCHEM_OPENEYE_ISO_SMILES>  (1) 
C1C(C(OC1N2C=CC(=NC2=O)N)COP(=O)(O)OP(=O)(O)OP(=O)(O)O)O

>  <PUBCHEM_CACTVS_TPSA>  (1) 
248

>  <PUBCHEM_MONOISOTOPIC_WEIGHT>  (1) 
466.989599

>  <PUBCHEM_TOTAL_CHARGE>  (1) 
0

>  <PUBCHEM_HEAVY_ATOM_COUNT>  (1) 
28

>  <PUBCHEM_ATOM_DEF_STEREO_COUNT>  (1) 
0

>  <PUBCHEM_ATOM_UDEF_STEREO_COUNT>  (1) 
3

>  <PUBCHEM_BOND_DEF_STEREO_COUNT>  (1) 
0

>  <PUBCHEM_BOND_UDEF_STEREO_COUNT>  (1) 
0

>  <PUBCHEM_ISOTOPIC_ATOM_COUNT>  (1) 
0

>  <PUBCHEM_COMPONENT_COUNT>  (1) 
1

>  <PUBCHEM_CACTVS_TAUTO_COUNT>  (1) 
-1

>  <PUBCHEM_COORDINATE_TYPE>  (1) 
1
5
255

>  <PUBCHEM_BONDANNOTATIONS>  (1) 
23  17  3
17  25  8
17  26  8
18  26  8
18  28  8
21  24  3
25  27  8
27  28  8
20  5  3

$$$$
