627
     RDKit          2D

 12 11  0  0  1  0  0  0  0  0999 V2000
   -0.8337   -2.1597    0.0000 O   0  0  0  0  0  0  0  0  0  0  0  0
   -2.0010    1.6334    0.0000 O   0  0  0  0  0  0  0  0  0  0  0  0
   -4.6499    0.2251    0.0000 O   0  0  0  0  0  0  0  0  0  0  0  0
    0.5955    1.5426    0.0000 O   0  0  0  0  0  0  0  0  0  0  0  0
    4.4117   -0.8421    0.0000 O   0  0  0  0  0  0  0  0  0  0  0  0
    3.1920    1.4519    0.0000 O   0  0  0  0  0  0  0  0  0  0  0  0
   -0.7813   -0.6606    0.0000 C   0  0  0  0  0  0  0  0  0  0  0  0
   -2.0534    0.1343    0.0000 C   0  0  0  0  0  0  0  0  0  0  0  0
   -3.3778   -0.5698    0.0000 C   0  0  0  0  0  0  0  0  0  0  0  0
    0.5431    0.0436    0.0000 C   0  0  0  0  0  0  0  0  0  0  0  0
    1.8152   -0.7514    0.0000 C   0  0  0  0  0  0  0  0  0  0  0  0
    3.1396   -0.0472    0.0000 C   0  0  0  0  0  0  0  0  0  0  0  0
  1  7  1  0
  2  8  1  0
  3  9  1  0
  4 10  2  0
  5 12  1  0
  6 12  2  0
  7  8  1  0
  7 10  1  0
  8  9  1  0
 10 11  1  0
 11 12  1  0
M  END
>  <PUBCHEM_COMPOUND_CID>  (1) 
627

>  <PUBCHEM_COMPOUND_CANONICALIZED>  (1) 
1

>  <PUBCHEM_CACTVS_COMPLEXITY>  (1) 
177

>  <PUBCHEM_CACTVS_HBOND_ACCEPTOR>  (1) 
6

>  <PUBCHEM_CACTVS_HBOND_DONOR>  (1) 
4

>  <PUBCHEM_CACTVS_ROTATABLE_BOND>  (1) 
5

>  <PUBCHEM_CACTVS_SUBSKEYS>  (1) 
AAADccBgOAAAAAAAAAAAAAAAAAAAAAAAAAAAAAAAAAAAAAAAAAAAGgAACAAACBSggAIACAAAAgAIAICQCAIAAAAAAAAAAAFAAAABEBYIAAAAQAAFIAABAAHKbARAAAAAAAAAAAAAAAAAAAAAAAAAAAAAAA==

>  <PUBCHEM_IUPAC_OPENEYE_NAME>  (1) 
4,5,6-trihydroxy-3-oxo-hexanoic acid

>  <PUBCHEM_IUPAC_CAS_NAME>  (1) 
4,5,6-trihydroxy-3-oxohexanoic acid

>  <PUBCHEM_IUPAC_NAME_MARKUP>  (1) 
4,5,6-trihydroxy-3-oxohexanoic acid

>  <PUBCHEM_IUPAC_NAME>  (1) 
4,5,6-trihydroxy-3-oxohexanoic acid

>  <PUBCHEM_IUPAC_SYSTEMATIC_NAME>  (1) 
4,5,6-tris(oxidanyl)-3-oxidanylidene-hexanoic acid

>  <PUBCHEM_IUPAC_TRADITIONAL_NAME>  (1) 
4,5,6-trihydroxy-3-keto-hexanoic acid

>  <PUBCHEM_IUPAC_INCHI>  (1) 
InChI=1S/C6H10O6/c7-2-4(9)6(12)3(8)1-5(10)11/h4,6-7,9,12H,1-2H2,(H,10,11)

>  <PUBCHEM_IUPAC_INCHIKEY>  (1) 
CNLFCQPCBQQMHK-UHFFFAOYSA-N

>  <PUBCHEM_XLOGP3_AA>  (1) 
-2.3

>  <PUBCHEM_EXACT_MASS>  (1) 
178.047738

>  <PUBCHEM_MOLECULAR_FORMULA>  (1) 
C6H10O6

>  <PUBCHEM_MOLECULAR_WEIGHT>  (1) 
178.14

>  <PUBCHEM_OPENEYE_CAN_SMILES>  (1) 
C(C(C(C(=O)CC(=O)O)O)O)O

>  <PUBCHEM_OPENEYE_ISO_SMILES>  (1) 
C(C(C(C(=O)CC(=O)O)O)O)O

>  <PUBCHEM_CACTVS_TPSA>  (1) 
115

>  <PUBCHEM_MONOISOTOPIC_WEIGHT>  (1) 
178.047738

>  <PUBCHEM_TOTAL_CHARGE>  (1) 
0

>  <PUBCHEM_HEAVY_ATOM_COUNT>  (1) 
12

>  <PUBCHEM_ATOM_DEF_STEREO_COUNT>  (1) 
0

>  <PUBCHEM_ATOM_UDEF_STEREO_COUNT>  (1) 
2

>  <PUBCHEM_BOND_DEF_STEREO_COUNT>  (1) 
0

>  <PUBCHEM_BOND_UDEF_STEREO_COUNT>  (1) 
0

>  <PUBCHEM_ISOTOPIC_ATOM_COUNT>  (1) 
0

>  <PUBCHEM_COMPONENT_COUNT>  (1) 
1

>  <PUBCHEM_CACTVS_TAUTO_COUNT>  (1) 
-1

>  <PUBCHEM_COORDINATE_TYPE>  (1) 
1
5
255

>  <PUBCHEM_BONDANNOTATIONS>  (1) 
7  1  3
8  2  3

$$$$
