629
     RDKit          2D

 30 31  0  0  1  0  0  0  0  0999 V2000
    3.2608   -1.2205    0.0000 O   0  0  0  0  0  0  0  0  0  0  0  0
   -1.3821    1.5531    0.0000 O   0  0  0  0  0  0  0  0  0  0  0  0
    2.4969   -4.1216    0.0000 O   0  0  0  0  0  0  0  0  0  0  0  0
   -0.0155   -3.4601    0.0000 O   0  0  0  0  0  0  0  0  0  0  0  0
    5.7732   -1.8820    0.0000 O   0  0  0  0  0  0  0  0  0  0  0  0
    9.4315    1.8081    0.0000 O   0  0  0  0  0  0  0  0  0  0  0  0
   -0.6988   -0.9535    0.0000 N   0  0  0  0  0  0  0  0  0  0  0  0
    5.0899    0.6246    0.0000 N   0  0  0  0  0  0  0  0  0  0  0  0
   -3.8946    2.2147    0.0000 N   0  0  0  0  0  0  0  0  0  0  0  0
   -8.2362    1.0311    0.0000 N   0  0  0  0  0  0  0  0  0  0  0  0
    7.6024   -0.0370    0.0000 N   0  0  0  0  0  0  0  0  0  0  0  0
  -10.0653   -0.8140    0.0000 N   0  0  0  0  0  0  0  0  0  0  0  0
   -7.5528   -1.4755    0.0000 N   0  0  0  0  0  0  0  0  0  0  0  0
    0.7484   -0.5590    0.0000 C   0  0  0  0  0  0  0  0  0  0  0  0
    1.8136   -1.6150    0.0000 C   0  0  0  0  0  0  0  0  0  0  0  0
    3.6427    0.2300    0.0000 C   0  0  0  0  0  0  0  0  0  0  0  0
   -4.2765    0.7641    0.0000 C   0  0  0  0  0  0  0  0  0  0  0  0
   -3.2113   -0.2920    0.0000 C   0  0  0  0  0  0  0  0  0  0  0  0
    1.1303    0.8916    0.0000 C   0  0  0  0  0  0  0  0  0  0  0  0
   -5.7237    0.3696    0.0000 C   0  0  0  0  0  0  0  0  0  0  0  0
    2.5775    1.2861    0.0000 C   0  0  0  0  0  0  0  0  0  0  0  0
   -1.7641    0.1026    0.0000 C   0  0  0  0  0  0  0  0  0  0  0  0
   -6.7890    1.4256    0.0000 C   0  0  0  0  0  0  0  0  0  0  0  0
    1.4317   -3.0656    0.0000 C   0  0  0  0  0  0  0  0  0  0  0  0
    6.1552   -0.4315    0.0000 C   0  0  0  0  0  0  0  0  0  0  0  0
    5.4719    2.0751    0.0000 C   0  0  0  0  0  0  0  0  0  0  0  0
   -9.3014    2.0872    0.0000 C   0  0  0  0  0  0  0  0  0  0  0  0
    6.9191    2.4696    0.0000 C   0  0  0  0  0  0  0  0  0  0  0  0
   -8.6181   -0.4194    0.0000 C   0  0  0  0  0  0  0  0  0  0  0  0
    7.9843    1.4136    0.0000 C   0  0  0  0  0  0  0  0  0  0  0  0
  1 15  1  0
  1 16  1  0
  2 22  2  0
  3 24  1  0
  4 24  2  0
  5 25  2  0
  6 30  2  0
  7 14  1  0
  7 22  1  0
  8 16  1  0
  8 25  1  0
  8 26  1  0
  9 17  1  0
 10 23  1  0
 10 27  1  0
 10 29  1  0
 11 25  1  0
 11 30  1  0
 12 29  1  0
 13 29  2  0
 14 15  1  0
 14 19  1  0
 15 24  1  0
 16 21  1  0
 17 18  1  0
 17 20  1  0
 18 22  1  0
 19 21  2  0
 20 23  1  0
 26 28  2  0
 28 30  1  0
M  END
>  <PUBCHEM_COMPOUND_CID>  (1) 
629

>  <PUBCHEM_COMPOUND_CANONICALIZED>  (1) 
1

>  <PUBCHEM_CACTVS_COMPLEXITY>  (1) 
783

>  <PUBCHEM_CACTVS_HBOND_ACCEPTOR>  (1) 
8

>  <PUBCHEM_CACTVS_HBOND_DONOR>  (1) 
6

>  <PUBCHEM_CACTVS_ROTATABLE_BOND>  (1) 
9

>  <PUBCHEM_CACTVS_SUBSKEYS>  (1) 
AAADceB7uAAAAAAAAAAAAAAAAAAAAAAAAAAgQAAAAAAAAAAAAAAAHgAQCAAACDzhgAYDCAPABgCoACHWeAKAAACgAgAJCIFIAEiDBBoA6QQPUAAO1yKbIMIYAQAAAAAAAAAAAAAAAAAAAAAAAAAAAAAAAA==

>  <PUBCHEM_IUPAC_OPENEYE_NAME>  (1) 
3-[[3-amino-5-[carbamimidoyl(methyl)amino]pentanoyl]amino]-6-(2,4-dioxopyrimidin-1-yl)-3,6-dihydro-2H-pyran-2-carboxylic acid

>  <PUBCHEM_IUPAC_CAS_NAME>  (1) 
3-[[3-amino-5-[carbamimidoyl(methyl)amino]-1-oxopentyl]amino]-6-(2,4-dioxo-1-pyrimidinyl)-3,6-dihydro-2H-pyran-2-carboxylic acid

>  <PUBCHEM_IUPAC_NAME_MARKUP>  (1) 
3-[[3-amino-5-[carbamimidoyl(methyl)amino]pentanoyl]amino]-6-(2,4-dioxopyrimidin-1-yl)-3,6-dihydro-2<I>H</I>-pyran-2-carboxylic acid

>  <PUBCHEM_IUPAC_NAME>  (1) 
3-[[3-amino-5-[carbamimidoyl(methyl)amino]pentanoyl]amino]-6-(2,4-dioxopyrimidin-1-yl)-3,6-dihydro-2H-pyran-2-carboxylic acid

>  <PUBCHEM_IUPAC_SYSTEMATIC_NAME>  (1) 
3-[[3-azanyl-5-[carbamimidoyl(methyl)amino]pentanoyl]amino]-6-[2,4-bis(oxidanylidene)pyrimidin-1-yl]-3,6-dihydro-2H-pyran-2-carboxylic acid

>  <PUBCHEM_IUPAC_TRADITIONAL_NAME>  (1) 
3-[[5-[amidino(methyl)amino]-3-amino-pentanoyl]amino]-6-(2,4-diketopyrimidin-1-yl)-3,6-dihydro-2H-pyran-2-carboxylic acid

>  <PUBCHEM_IUPAC_INCHI>  (1) 
InChI=1S/C17H25N7O6/c1-23(16(19)20)6-4-9(18)8-12(26)21-10-2-3-13(30-14(10)15(27)28)24-7-5-11(25)22-17(24)29/h2-3,5,7,9-10,13-14H,4,6,8,18H2,1H3,(H3,19,20)(H,21,26)(H,27,28)(H,22,25,29)

>  <PUBCHEM_IUPAC_INCHIKEY>  (1) 
REIIQZAQCCFGIJ-UHFFFAOYSA-N

>  <PUBCHEM_XLOGP3_AA>  (1) 
-4.9

>  <PUBCHEM_EXACT_MASS>  (1) 
423.186632

>  <PUBCHEM_MOLECULAR_FORMULA>  (1) 
C17H25N7O6

>  <PUBCHEM_MOLECULAR_WEIGHT>  (1) 
423.4

>  <PUBCHEM_OPENEYE_CAN_SMILES>  (1) 
CN(CCC(CC(=O)NC1C=CC(OC1C(=O)O)N2C=CC(=O)NC2=O)N)C(=N)N

>  <PUBCHEM_OPENEYE_ISO_SMILES>  (1) 
CN(CCC(CC(=O)NC1C=CC(OC1C(=O)O)N2C=CC(=O)NC2=O)N)C(=N)N

>  <PUBCHEM_CACTVS_TPSA>  (1) 
204

>  <PUBCHEM_MONOISOTOPIC_WEIGHT>  (1) 
423.186632

>  <PUBCHEM_TOTAL_CHARGE>  (1) 
0

>  <PUBCHEM_HEAVY_ATOM_COUNT>  (1) 
30

>  <PUBCHEM_ATOM_DEF_STEREO_COUNT>  (1) 
0

>  <PUBCHEM_ATOM_UDEF_STEREO_COUNT>  (1) 
4

>  <PUBCHEM_BOND_DEF_STEREO_COUNT>  (1) 
0

>  <PUBCHEM_BOND_UDEF_STEREO_COUNT>  (1) 
0

>  <PUBCHEM_ISOTOPIC_ATOM_COUNT>  (1) 
0

>  <PUBCHEM_COMPONENT_COUNT>  (1) 
1

>  <PUBCHEM_CACTVS_TAUTO_COUNT>  (1) 
-1

>  <PUBCHEM_COORDINATE_TYPE>  (1) 
1
5
255

>  <PUBCHEM_BONDANNOTATIONS>  (1) 
11  25  8
11  30  8
15  24  3
26  28  8
28  30  8
14  7  3
16  8  3
8  25  8
8  26  8
17  9  3

$$$$
