631
     RDKit          2D

 21 20  0  0  1  0  0  0  0  0999 V2000
   -6.9863   -1.9066    0.0000 O   0  0  0  0  0  0  0  0  0  0  0  0
  -10.8879    0.3357    0.0000 O   0  0  0  0  0  0  0  0  0  0  0  0
   -8.2927    1.8408    0.0000 N   0  0  0  0  0  0  0  0  0  0  0  0
    2.1025    0.3613    0.0000 C   0  0  0  0  0  0  0  0  0  0  0  0
    3.4030   -0.3861    0.0000 C   0  0  0  0  0  0  0  0  0  0  0  0
    0.8049   -0.3913    0.0000 C   0  0  0  0  0  0  0  0  0  0  0  0
    4.7006    0.3664    0.0000 C   0  0  0  0  0  0  0  0  0  0  0  0
   -0.4956    0.3562    0.0000 C   0  0  0  0  0  0  0  0  0  0  0  0
    6.0011   -0.3810    0.0000 C   0  0  0  0  0  0  0  0  0  0  0  0
   -1.7931   -0.3964    0.0000 C   0  0  0  0  0  0  0  0  0  0  0  0
    7.2986    0.3715    0.0000 C   0  0  0  0  0  0  0  0  0  0  0  0
   -3.0936    0.3510    0.0000 C   0  0  0  0  0  0  0  0  0  0  0  0
    8.5992   -0.3759    0.0000 C   0  0  0  0  0  0  0  0  0  0  0  0
   -4.3912   -0.4015    0.0000 C   0  0  0  0  0  0  0  0  0  0  0  0
    9.8967    0.3767    0.0000 C   0  0  0  0  0  0  0  0  0  0  0  0
   -5.6917    0.3459    0.0000 C   0  0  0  0  0  0  0  0  0  0  0  0
   11.1972   -0.3708    0.0000 C   0  0  0  0  0  0  0  0  0  0  0  0
   -6.9893   -0.4066    0.0000 C   0  0  0  0  0  0  0  0  0  0  0  0
   -8.2898    0.3408    0.0000 C   0  0  0  0  0  0  0  0  0  0  0  0
   12.4948    0.3818    0.0000 C   0  0  0  0  0  0  0  0  0  0  0  0
   -9.5873   -0.4118    0.0000 C   0  0  0  0  0  0  0  0  0  0  0  0
  1 18  2  0
  2 21  1  0
  3 19  1  0
  4  5  1  0
  4  6  1  0
  5  7  1  0
  6  8  1  0
  7  9  1  0
  8 10  1  0
  9 11  1  0
 10 12  1  0
 11 13  1  0
 12 14  1  0
 13 15  1  0
 14 16  1  0
 15 17  1  0
 16 18  1  0
 17 20  1  0
 18 19  1  0
 19 21  1  0
M  END
>  <PUBCHEM_COMPOUND_CID>  (1) 
631

>  <PUBCHEM_COMPOUND_CANONICALIZED>  (1) 
1

>  <PUBCHEM_CACTVS_COMPLEXITY>  (1) 
231

>  <PUBCHEM_CACTVS_HBOND_ACCEPTOR>  (1) 
3

>  <PUBCHEM_CACTVS_HBOND_DONOR>  (1) 
2

>  <PUBCHEM_CACTVS_ROTATABLE_BOND>  (1) 
16

>  <PUBCHEM_CACTVS_SUBSKEYS>  (1) 
AAADcfB6MAAAAAAAAAAAAAAAAAAAAAAAAAAAAAAAAAAAAAAAAAAAHgAQCAAACCzhgAYCAABAAgAIAIAQAAAAAAAAAAAAAIGAAAACEBYAgAAAQAAEMAAAAAGYyKCAAAAAAAAAAAAAAAAAAAAAAAAAAAAAAA==

>  <PUBCHEM_IUPAC_OPENEYE_NAME>  (1) 
2-amino-1-hydroxy-octadecan-3-one

>  <PUBCHEM_IUPAC_CAS_NAME>  (1) 
2-amino-1-hydroxy-3-octadecanone

>  <PUBCHEM_IUPAC_NAME_MARKUP>  (1) 
2-amino-1-hydroxyoctadecan-3-one

>  <PUBCHEM_IUPAC_NAME>  (1) 
2-amino-1-hydroxyoctadecan-3-one

>  <PUBCHEM_IUPAC_SYSTEMATIC_NAME>  (1) 
2-azanyl-1-oxidanyl-octadecan-3-one

>  <PUBCHEM_IUPAC_TRADITIONAL_NAME>  (1) 
2-amino-1-hydroxy-octadecan-3-one

>  <PUBCHEM_IUPAC_INCHI>  (1) 
InChI=1S/C18H37NO2/c1-2-3-4-5-6-7-8-9-10-11-12-13-14-15-18(21)17(19)16-20/h17,20H,2-16,19H2,1H3

>  <PUBCHEM_IUPAC_INCHIKEY>  (1) 
KBUNOSOGGAARKZ-UHFFFAOYSA-N

>  <PUBCHEM_XLOGP3_AA>  (1) 
5.7

>  <PUBCHEM_EXACT_MASS>  (1) 
299.282429

>  <PUBCHEM_MOLECULAR_FORMULA>  (1) 
C18H37NO2

>  <PUBCHEM_MOLECULAR_WEIGHT>  (1) 
299.5

>  <PUBCHEM_OPENEYE_CAN_SMILES>  (1) 
CCCCCCCCCCCCCCCC(=O)C(CO)N

>  <PUBCHEM_OPENEYE_ISO_SMILES>  (1) 
CCCCCCCCCCCCCCCC(=O)C(CO)N

>  <PUBCHEM_CACTVS_TPSA>  (1) 
63.3

>  <PUBCHEM_MONOISOTOPIC_WEIGHT>  (1) 
299.282429

>  <PUBCHEM_TOTAL_CHARGE>  (1) 
0

>  <PUBCHEM_HEAVY_ATOM_COUNT>  (1) 
21

>  <PUBCHEM_ATOM_DEF_STEREO_COUNT>  (1) 
0

>  <PUBCHEM_ATOM_UDEF_STEREO_COUNT>  (1) 
1

>  <PUBCHEM_BOND_DEF_STEREO_COUNT>  (1) 
0

>  <PUBCHEM_BOND_UDEF_STEREO_COUNT>  (1) 
0

>  <PUBCHEM_ISOTOPIC_ATOM_COUNT>  (1) 
0

>  <PUBCHEM_COMPONENT_COUNT>  (1) 
1

>  <PUBCHEM_CACTVS_TAUTO_COUNT>  (1) 
-1

>  <PUBCHEM_COORDINATE_TYPE>  (1) 
1
5
255

>  <PUBCHEM_BONDANNOTATIONS>  (1) 
19  3  3

$$$$
