633
     RDKit          2D

 52 53  0  0  0  0  0  0  0  0999 V2000
   14.0961   -2.4458    0.0000 O   0  0  0  0  0  0  0  0  0  0  0  0
   17.0860    2.7562    0.0000 O   0  0  0  0  0  0  0  0  0  0  0  0
   -3.9089    0.1173    0.0000 C   0  0  0  0  0  0  0  0  0  0  0  0
    0.5911    0.1261    0.0000 C   0  0  0  0  0  0  0  0  0  0  0  0
   -0.9089    0.1231    0.0000 C   0  0  0  0  0  0  0  0  0  0  0  0
   -5.4089    0.1144    0.0000 C   0  0  0  0  0  0  0  0  0  0  0  0
   -8.4089    0.1086    0.0000 C   0  0  0  0  0  0  0  0  0  0  0  0
    5.0911    0.1348    0.0000 C   0  0  0  0  0  0  0  0  0  0  0  0
   -3.1564   -1.1803    0.0000 C   0  0  0  0  0  0  0  0  0  0  0  0
    3.5911    0.1319    0.0000 C   0  0  0  0  0  0  0  0  0  0  0  0
   -9.9089    0.1057    0.0000 C   0  0  0  0  0  0  0  0  0  0  0  0
    1.3386    1.4265    0.0000 C   0  0  0  0  0  0  0  0  0  0  0  0
   -7.6614    1.4091    0.0000 C   0  0  0  0  0  0  0  0  0  0  0  0
  -12.9089    0.0998    0.0000 C   0  0  0  0  0  0  0  0  0  0  0  0
    5.8436   -1.1628    0.0000 C   0  0  0  0  0  0  0  0  0  0  0  0
   -1.6564   -1.1774    0.0000 C   0  0  0  0  0  0  0  0  0  0  0  0
   -6.1614    1.4120    0.0000 C   0  0  0  0  0  0  0  0  0  0  0  0
  -12.1563   -1.1978    0.0000 C   0  0  0  0  0  0  0  0  0  0  0  0
    2.8386    1.4295    0.0000 C   0  0  0  0  0  0  0  0  0  0  0  0
    8.0911    0.1406    0.0000 C   0  0  0  0  0  0  0  0  0  0  0  0
    9.5911    0.1435    0.0000 C   0  0  0  0  0  0  0  0  0  0  0  0
  -14.4089    0.0969    0.0000 C   0  0  0  0  0  0  0  0  0  0  0  0
  -10.6564   -1.1948    0.0000 C   0  0  0  0  0  0  0  0  0  0  0  0
    7.3436   -1.1599    0.0000 C   0  0  0  0  0  0  0  0  0  0  0  0
   10.3386    1.4440    0.0000 C   0  0  0  0  0  0  0  0  0  0  0  0
   -3.9038   -2.4808    0.0000 C   0  0  0  0  0  0  0  0  0  0  0  0
  -15.1614    1.3945    0.0000 C   0  0  0  0  0  0  0  0  0  0  0  0
    0.5861    2.7241    0.0000 C   0  0  0  0  0  0  0  0  0  0  0  0
  -16.6614    1.3916    0.0000 C   0  0  0  0  0  0  0  0  0  0  0  0
   -8.4139    2.7066    0.0000 C   0  0  0  0  0  0  0  0  0  0  0  0
  -17.4089    0.0911    0.0000 C   0  0  0  0  0  0  0  0  0  0  0  0
   12.5911    0.1494    0.0000 C   0  0  0  0  0  0  0  0  0  0  0  0
    5.0961   -2.4633    0.0000 C   0  0  0  0  0  0  0  0  0  0  0  0
   11.8386    1.4470    0.0000 C   0  0  0  0  0  0  0  0  0  0  0  0
  -12.9038   -2.4983    0.0000 C   0  0  0  0  0  0  0  0  0  0  0  0
   14.0911    0.1523    0.0000 C   0  0  0  0  0  0  0  0  0  0  0  0
  -18.9089    0.0882    0.0000 C   0  0  0  0  0  0  0  0  0  0  0  0
    9.5860    2.7416    0.0000 C   0  0  0  0  0  0  0  0  0  0  0  0
  -17.4139    2.6891    0.0000 C   0  0  0  0  0  0  0  0  0  0  0  0
   14.8436   -1.1453    0.0000 C   0  0  0  0  0  0  0  0  0  0  0  0
   16.3436   -1.1424    0.0000 C   0  0  0  0  0  0  0  0  0  0  0  0
   17.0911    0.1581    0.0000 C   0  0  0  0  0  0  0  0  0  0  0  0
   14.8386    1.4528    0.0000 C   0  0  0  0  0  0  0  0  0  0  0  0
   16.3385    1.4557    0.0000 C   0  0  0  0  0  0  0  0  0  0  0  0
  -19.6563   -1.2123    0.0000 C   0  0  0  0  0  0  0  0  0  0  0  0
   17.0961   -2.4399    0.0000 C   0  0  0  0  0  0  0  0  0  0  0  0
   18.5911    0.1610    0.0000 C   0  0  0  0  0  0  0  0  0  0  0  0
  -21.1563   -1.2152    0.0000 C   0  0  0  0  0  0  0  0  0  0  0  0
   18.5961   -2.4370    0.0000 C   0  0  0  0  0  0  0  0  0  0  0  0
   19.3436   -1.1365    0.0000 C   0  0  0  0  0  0  0  0  0  0  0  0
  -21.9038   -2.5157    0.0000 C   0  0  0  0  0  0  0  0  0  0  0  0
  -21.9089    0.0823    0.0000 C   0  0  0  0  0  0  0  0  0  0  0  0
  1 40  2  0
  2 44  2  0
  3  6  1  0
  3  9  1  0
  4  5  1  0
  4 12  1  0
  5 16  1  0
  6 17  1  0
  7 11  1  0
  7 13  1  0
  8 10  1  0
  8 15  1  0
  9 16  2  3
  9 26  1  0
 10 19  1  0
 11 23  1  0
 12 19  2  3
 12 28  1  0
 13 17  2  3
 13 30  1  0
 14 18  1  0
 14 22  1  0
 15 24  2  3
 15 33  1  0
 18 23  2  3
 18 35  1  0
 20 21  1  0
 20 24  1  0
 21 25  1  0
 22 27  1  0
 25 34  2  3
 25 38  1  0
 27 29  2  3
 29 31  1  0
 29 39  1  0
 31 37  1  0
 32 34  1  0
 32 36  1  0
 36 40  1  0
 36 43  2  0
 37 45  1  0
 40 41  1  0
 41 42  2  0
 41 46  1  0
 42 44  1  0
 42 47  1  0
 43 44  1  0
 45 48  2  3
 46 49  2  0
 47 50  2  0
 48 51  1  0
 48 52  1  0
 49 50  1  0
M  END
>  <PUBCHEM_COMPOUND_CID>  (1) 
633

>  <PUBCHEM_COMPOUND_CANONICALIZED>  (1) 
1

>  <PUBCHEM_CACTVS_COMPLEXITY>  (1) 
1420

>  <PUBCHEM_CACTVS_HBOND_ACCEPTOR>  (1) 
2

>  <PUBCHEM_CACTVS_HBOND_DONOR>  (1) 
0

>  <PUBCHEM_CACTVS_ROTATABLE_BOND>  (1) 
23

>  <PUBCHEM_CACTVS_SUBSKEYS>  (1) 
AAADcfB8MAAAAAAAAAAAAAAAAAAAAAAAAAAwQAAAAAAAAACBAAAAGgAAAAAADASAmAAyAIAAAACIAqBSAAACAAAkAAAIiAEAAMgIIDKAFRCAIQAggAAIiYcJiMCOgAAAAAAQAAAAAAAAACAAAAAAAAAAAA==

>  <PUBCHEM_IUPAC_OPENEYE_NAME>  (1) 
2-(3,7,11,15,19,23,27,31-octamethyldotriaconta-2,6,10,14,18,22,26,30-octaenyl)naphthalene-1,4-dione

>  <PUBCHEM_IUPAC_CAS_NAME>  (1) 
2-(3,7,11,15,19,23,27,31-octamethyldotriaconta-2,6,10,14,18,22,26,30-octaenyl)naphthalene-1,4-dione

>  <PUBCHEM_IUPAC_NAME_MARKUP>  (1) 
2-(3,7,11,15,19,23,27,31-octamethyldotriaconta-2,6,10,14,18,22,26,30-octaenyl)naphthalene-1,4-dione

>  <PUBCHEM_IUPAC_NAME>  (1) 
2-(3,7,11,15,19,23,27,31-octamethyldotriaconta-2,6,10,14,18,22,26,30-octaenyl)naphthalene-1,4-dione

>  <PUBCHEM_IUPAC_SYSTEMATIC_NAME>  (1) 
2-(3,7,11,15,19,23,27,31-octamethyldotriaconta-2,6,10,14,18,22,26,30-octaenyl)naphthalene-1,4-dione

>  <PUBCHEM_IUPAC_TRADITIONAL_NAME>  (1) 
2-(3,7,11,15,19,23,27,31-octamethyldotriaconta-2,6,10,14,18,22,26,30-octaenyl)-1,4-naphthoquinone

>  <PUBCHEM_IUPAC_INCHI>  (1) 
InChI=1S/C50H70O2/c1-38(2)19-12-20-39(3)21-13-22-40(4)23-14-24-41(5)25-15-26-42(6)27-16-28-43(7)29-17-30-44(8)31-18-32-45(9)35-36-46-37-49(51)47-33-10-11-34-48(47)50(46)52/h10-11,19,21,23,25,27,29,31,33-35,37H,12-18,20,22,24,26,28,30,32,36H2,1-9H3

>  <PUBCHEM_IUPAC_INCHIKEY>  (1) 
GDUBPWSFXUAETN-UHFFFAOYSA-N

>  <PUBCHEM_XLOGP3>  (1) 
16.8

>  <PUBCHEM_EXACT_MASS>  (1) 
702.537581

>  <PUBCHEM_MOLECULAR_FORMULA>  (1) 
C50H70O2

>  <PUBCHEM_MOLECULAR_WEIGHT>  (1) 
703.1

>  <PUBCHEM_OPENEYE_CAN_SMILES>  (1) 
CC(=CCCC(=CCCC(=CCCC(=CCCC(=CCCC(=CCCC(=CCCC(=CCC1=CC(=O)C2=CC=CC=C2C1=O)C)C)C)C)C)C)C)C

>  <PUBCHEM_OPENEYE_ISO_SMILES>  (1) 
CC(=CCCC(=CCCC(=CCCC(=CCCC(=CCCC(=CCCC(=CCCC(=CCC1=CC(=O)C2=CC=CC=C2C1=O)C)C)C)C)C)C)C)C

>  <PUBCHEM_CACTVS_TPSA>  (1) 
34.1

>  <PUBCHEM_MONOISOTOPIC_WEIGHT>  (1) 
702.537581

>  <PUBCHEM_TOTAL_CHARGE>  (1) 
0

>  <PUBCHEM_HEAVY_ATOM_COUNT>  (1) 
52

>  <PUBCHEM_ATOM_DEF_STEREO_COUNT>  (1) 
0

>  <PUBCHEM_ATOM_UDEF_STEREO_COUNT>  (1) 
0

>  <PUBCHEM_BOND_DEF_STEREO_COUNT>  (1) 
0

>  <PUBCHEM_BOND_UDEF_STEREO_COUNT>  (1) 
7

>  <PUBCHEM_ISOTOPIC_ATOM_COUNT>  (1) 
0

>  <PUBCHEM_COMPONENT_COUNT>  (1) 
1

>  <PUBCHEM_CACTVS_TAUTO_COUNT>  (1) 
-1

>  <PUBCHEM_COORDINATE_TYPE>  (1) 
1
5
255

>  <PUBCHEM_BONDANNOTATIONS>  (1) 
12  19  1
13  17  1
15  24  1
18  23  1
25  34  1
27  29  1
41  42  8
41  46  8
42  47  8
46  49  8
47  50  8
49  50  8
9  16  1

$$$$
