634
     RDKit          2D

 13 13  0  0  1  0  0  0  0  0999 V2000
   -2.8647   -0.1886    0.0000 P   0  0  0  0  0  0  0  0  0  0  0  0
    1.0354   -1.1424    0.0000 O   0  0  0  0  0  0  0  0  0  0  0  0
   -1.6360   -1.0490    0.0000 O   0  0  0  0  0  0  0  0  0  0  0  0
    2.2258    2.5520    0.0000 O   0  0  0  0  0  0  0  0  0  0  0  0
    4.0932   -1.8239    0.0000 O   0  0  0  0  0  0  0  0  0  0  0  0
   -2.0043    1.0401    0.0000 O   0  0  0  0  0  0  0  0  0  0  0  0
   -4.0934    0.6718    0.0000 O   0  0  0  0  0  0  0  0  0  0  0  0
   -3.7251   -1.4173    0.0000 O   0  0  0  0  0  0  0  0  0  0  0  0
    1.4986    1.2401    0.0000 C   0  0  0  0  0  0  0  0  0  0  0  0
    2.1325   -0.1194    0.0000 C   0  0  0  0  0  0  0  0  0  0  0  0
    0.0097    1.0573    0.0000 C   0  0  0  0  0  0  0  0  0  0  0  0
   -0.2765   -0.4151    0.0000 C   0  0  0  0  0  0  0  0  0  0  0  0
    3.6049   -0.4056    0.0000 C   0  0  0  0  0  0  0  0  0  0  0  0
  1  3  1  0
  1  6  1  0
  1  7  1  0
  1  8  2  0
  2 10  1  0
  2 12  1  0
  3 12  1  0
  4  9  1  0
  5 13  1  0
  9 10  1  0
  9 11  1  0
 10 13  1  0
 11 12  1  0
M  END
>  <PUBCHEM_COMPOUND_CID>  (1) 
634

>  <PUBCHEM_COMPOUND_CANONICALIZED>  (1) 
1

>  <PUBCHEM_CACTVS_COMPLEXITY>  (1) 
213

>  <PUBCHEM_CACTVS_HBOND_ACCEPTOR>  (1) 
7

>  <PUBCHEM_CACTVS_HBOND_DONOR>  (1) 
4

>  <PUBCHEM_CACTVS_ROTATABLE_BOND>  (1) 
3

>  <PUBCHEM_CACTVS_SUBSKEYS>  (1) 
AAADccBgOAIAAAAAAAAAAAAAAAAAASAAAAAAAAAAAAAAAAAAAAAAGgAACCAACBSwgAMACAAABxAAQAAAAIAAAAAAAAAAAAAAAAAREAIAAAACQAAFAAAHAADAIAAAAAAAAAAAAAAAAAAAAAAAAAAAAAAAAA==

>  <PUBCHEM_IUPAC_OPENEYE_NAME>  (1) 
[4-hydroxy-5-(hydroxymethyl)tetrahydrofuran-2-yl] dihydrogen phosphate

>  <PUBCHEM_IUPAC_CAS_NAME>  (1) 
[4-hydroxy-5-(hydroxymethyl)-2-oxolanyl] dihydrogen phosphate

>  <PUBCHEM_IUPAC_NAME_MARKUP>  (1) 
[4-hydroxy-5-(hydroxymethyl)oxolan-2-yl] dihydrogen phosphate

>  <PUBCHEM_IUPAC_NAME>  (1) 
[4-hydroxy-5-(hydroxymethyl)oxolan-2-yl] dihydrogen phosphate

>  <PUBCHEM_IUPAC_SYSTEMATIC_NAME>  (1) 
[5-(hydroxymethyl)-4-oxidanyl-oxolan-2-yl] dihydrogen phosphate

>  <PUBCHEM_IUPAC_TRADITIONAL_NAME>  (1) 
(4-hydroxy-5-methylol-tetrahydrofuran-2-yl) dihydrogen phosphate

>  <PUBCHEM_IUPAC_INCHI>  (1) 
InChI=1S/C5H11O7P/c6-2-4-3(7)1-5(11-4)12-13(8,9)10/h3-7H,1-2H2,(H2,8,9,10)

>  <PUBCHEM_IUPAC_INCHIKEY>  (1) 
KBDKAJNTYKVSEK-UHFFFAOYSA-N

>  <PUBCHEM_XLOGP3_AA>  (1) 
-2.1

>  <PUBCHEM_EXACT_MASS>  (1) 
214.02424

>  <PUBCHEM_MOLECULAR_FORMULA>  (1) 
C5H11O7P

>  <PUBCHEM_MOLECULAR_WEIGHT>  (1) 
214.11

>  <PUBCHEM_OPENEYE_CAN_SMILES>  (1) 
C1C(C(OC1OP(=O)(O)O)CO)O

>  <PUBCHEM_OPENEYE_ISO_SMILES>  (1) 
C1C(C(OC1OP(=O)(O)O)CO)O

>  <PUBCHEM_CACTVS_TPSA>  (1) 
116

>  <PUBCHEM_MONOISOTOPIC_WEIGHT>  (1) 
214.02424

>  <PUBCHEM_TOTAL_CHARGE>  (1) 
0

>  <PUBCHEM_HEAVY_ATOM_COUNT>  (1) 
13

>  <PUBCHEM_ATOM_DEF_STEREO_COUNT>  (1) 
0

>  <PUBCHEM_ATOM_UDEF_STEREO_COUNT>  (1) 
3

>  <PUBCHEM_BOND_DEF_STEREO_COUNT>  (1) 
0

>  <PUBCHEM_BOND_UDEF_STEREO_COUNT>  (1) 
0

>  <PUBCHEM_ISOTOPIC_ATOM_COUNT>  (1) 
0

>  <PUBCHEM_COMPONENT_COUNT>  (1) 
1

>  <PUBCHEM_CACTVS_TAUTO_COUNT>  (1) 
-1

>  <PUBCHEM_COORDINATE_TYPE>  (1) 
1
5
255

>  <PUBCHEM_BONDANNOTATIONS>  (1) 
10  13  3
12  3  3
9  4  3

$$$$
