635
     RDKit          2D

 13 13  0  0  1  0  0  0  0  0999 V2000
    3.1031   -0.2387    0.0000 P   0  0  0  0  0  0  0  0  0  0  0  0
   -1.4456   -1.1155    0.0000 O   0  0  0  0  0  0  0  0  0  0  0  0
   -1.7913    2.7505    0.0000 O   0  0  0  0  0  0  0  0  0  0  0  0
    1.6357   -0.5497    0.0000 O   0  0  0  0  0  0  0  0  0  0  0  0
   -3.9417   -2.0720    0.0000 O   0  0  0  0  0  0  0  0  0  0  0  0
    2.7920    1.2287    0.0000 O   0  0  0  0  0  0  0  0  0  0  0  0
    4.5705    0.0724    0.0000 O   0  0  0  0  0  0  0  0  0  0  0  0
    3.4141   -1.7061    0.0000 O   0  0  0  0  0  0  0  0  0  0  0  0
   -0.8348    0.2545    0.0000 C   0  0  0  0  0  0  0  0  0  0  0  0
   -1.9489    1.2588    0.0000 C   0  0  0  0  0  0  0  0  0  0  0  0
   -3.2484    0.5095    0.0000 C   0  0  0  0  0  0  0  0  0  0  0  0
   -2.9373   -0.9579    0.0000 C   0  0  0  0  0  0  0  0  0  0  0  0
    0.6326    0.5655    0.0000 C   0  0  0  0  0  0  0  0  0  0  0  0
  1  4  1  0
  1  6  1  0
  1  7  1  0
  1  8  2  0
  2  9  1  0
  2 12  1  0
  3 10  1  0
  4 13  1  0
  5 12  1  0
  9 10  1  0
  9 13  1  0
 10 11  1  0
 11 12  1  0
M  END
>  <PUBCHEM_COMPOUND_CID>  (1) 
635

>  <PUBCHEM_COMPOUND_CANONICALIZED>  (1) 
1

>  <PUBCHEM_CACTVS_COMPLEXITY>  (1) 
213

>  <PUBCHEM_CACTVS_HBOND_ACCEPTOR>  (1) 
7

>  <PUBCHEM_CACTVS_HBOND_DONOR>  (1) 
4

>  <PUBCHEM_CACTVS_ROTATABLE_BOND>  (1) 
3

>  <PUBCHEM_CACTVS_SUBSKEYS>  (1) 
AAADccBgOAIAAAAAAAAAAAAAAAAAASAAAAAAAAAAAAAAAAAAAAAAGgAACCAACBSwgAMACAAABxAAQAAAAIAAAAAAAAAAAAAAAAAREAIAAAACQAAFAAAHAADAIAAAAAAAAAAAAAAAAAAAAAAAAAAAAAAAAA==

>  <PUBCHEM_IUPAC_OPENEYE_NAME>  (1) 
(3,5-dihydroxytetrahydrofuran-2-yl)methyl dihydrogen phosphate

>  <PUBCHEM_IUPAC_CAS_NAME>  (1) 
(3,5-dihydroxy-2-oxolanyl)methyl dihydrogen phosphate

>  <PUBCHEM_IUPAC_NAME_MARKUP>  (1) 
(3,5-dihydroxyoxolan-2-yl)methyl dihydrogen phosphate

>  <PUBCHEM_IUPAC_NAME>  (1) 
(3,5-dihydroxyoxolan-2-yl)methyl dihydrogen phosphate

>  <PUBCHEM_IUPAC_SYSTEMATIC_NAME>  (1) 
[3,5-bis(oxidanyl)oxolan-2-yl]methyl dihydrogen phosphate

>  <PUBCHEM_IUPAC_TRADITIONAL_NAME>  (1) 
(3,5-dihydroxytetrahydrofuran-2-yl)methyl dihydrogen phosphate

>  <PUBCHEM_IUPAC_INCHI>  (1) 
InChI=1S/C5H11O7P/c6-3-1-5(7)12-4(3)2-11-13(8,9)10/h3-7H,1-2H2,(H2,8,9,10)

>  <PUBCHEM_IUPAC_INCHIKEY>  (1) 
KKZFLSZAWCYPOC-UHFFFAOYSA-N

>  <PUBCHEM_XLOGP3_AA>  (1) 
-2.6

>  <PUBCHEM_EXACT_MASS>  (1) 
214.02424

>  <PUBCHEM_MOLECULAR_FORMULA>  (1) 
C5H11O7P

>  <PUBCHEM_MOLECULAR_WEIGHT>  (1) 
214.11

>  <PUBCHEM_OPENEYE_CAN_SMILES>  (1) 
C1C(C(OC1O)COP(=O)(O)O)O

>  <PUBCHEM_OPENEYE_ISO_SMILES>  (1) 
C1C(C(OC1O)COP(=O)(O)O)O

>  <PUBCHEM_CACTVS_TPSA>  (1) 
116

>  <PUBCHEM_MONOISOTOPIC_WEIGHT>  (1) 
214.02424

>  <PUBCHEM_TOTAL_CHARGE>  (1) 
0

>  <PUBCHEM_HEAVY_ATOM_COUNT>  (1) 
13

>  <PUBCHEM_ATOM_DEF_STEREO_COUNT>  (1) 
0

>  <PUBCHEM_ATOM_UDEF_STEREO_COUNT>  (1) 
3

>  <PUBCHEM_BOND_DEF_STEREO_COUNT>  (1) 
0

>  <PUBCHEM_BOND_UDEF_STEREO_COUNT>  (1) 
0

>  <PUBCHEM_ISOTOPIC_ATOM_COUNT>  (1) 
0

>  <PUBCHEM_COMPONENT_COUNT>  (1) 
1

>  <PUBCHEM_CACTVS_TAUTO_COUNT>  (1) 
-1

>  <PUBCHEM_COORDINATE_TYPE>  (1) 
1
5
255

>  <PUBCHEM_BONDANNOTATIONS>  (1) 
10  3  3
12  5  3
9  13  3

$$$$
