637
     RDKit          2D

 16 17  0  0  1  0  0  0  0  0999 V2000
   -1.5677    0.9850    0.0000 O   0  0  0  0  0  0  0  0  0  0  0  0
   -3.8149   -2.1798    0.0000 O   0  0  0  0  0  0  0  0  0  0  0  0
   -4.2786    2.5553    0.0000 O   0  0  0  0  0  0  0  0  0  0  0  0
    1.2899   -2.4841    0.0000 O   0  0  0  0  0  0  0  0  0  0  0  0
    0.9517    0.0919    0.0000 N   0  0  0  0  0  0  0  0  0  0  0  0
    3.3517   -0.9032    0.0000 N   0  0  0  0  0  0  0  0  0  0  0  0
    5.4134    0.6778    0.0000 N   0  0  0  0  0  0  0  0  0  0  0  0
   -2.7265   -1.1476    0.0000 C   0  0  0  0  0  0  0  0  0  0  0  0
   -1.2517   -1.4214    0.0000 C   0  0  0  0  0  0  0  0  0  0  0  0
   -2.9218    0.3396    0.0000 C   0  0  0  0  0  0  0  0  0  0  0  0
   -0.5356   -0.1034    0.0000 C   0  0  0  0  0  0  0  0  0  0  0  0
   -4.2398    1.0558    0.0000 C   0  0  0  0  0  0  0  0  0  0  0  0
    1.5261    1.4775    0.0000 C   0  0  0  0  0  0  0  0  0  0  0  0
    1.8644   -1.0985    0.0000 C   0  0  0  0  0  0  0  0  0  0  0  0
    3.0134    1.6728    0.0000 C   0  0  0  0  0  0  0  0  0  0  0  0
    3.9261    0.4825    0.0000 C   0  0  0  0  0  0  0  0  0  0  0  0
  1 10  1  0
  1 11  1  0
  2  8  1  0
  3 12  1  0
  4 14  2  0
  5 11  1  0
  5 13  1  0
  5 14  1  0
  6 14  1  0
  6 16  2  0
  7 16  1  0
  8  9  1  0
  8 10  1  0
  9 11  1  0
 10 12  1  0
 13 15  2  0
 15 16  1  0
M  END
>  <PUBCHEM_COMPOUND_CID>  (1) 
637

>  <PUBCHEM_COMPOUND_CANONICALIZED>  (1) 
1

>  <PUBCHEM_CACTVS_COMPLEXITY>  (1) 
355

>  <PUBCHEM_CACTVS_HBOND_ACCEPTOR>  (1) 
4

>  <PUBCHEM_CACTVS_HBOND_DONOR>  (1) 
3

>  <PUBCHEM_CACTVS_ROTATABLE_BOND>  (1) 
2

>  <PUBCHEM_CACTVS_SUBSKEYS>  (1) 
AAADccBzOAAAAAAAAAAAAAAAAAAAASAAAAAgAAAAAAAAAAAAAAAAHgAQCAAACBThgAYBAANABgCoACJmdACAAAEAAgAIAAAYABCBEAIAgAAOQAAHFgIDAACwMAIAAAAAAAAAAAAAAAAAAAAAAAAAAAAAAA==

>  <PUBCHEM_IUPAC_OPENEYE_NAME>  (1) 
4-amino-1-[4-hydroxy-5-(hydroxymethyl)tetrahydrofuran-2-yl]pyrimidin-2-one

>  <PUBCHEM_IUPAC_CAS_NAME>  (1) 
4-amino-1-[4-hydroxy-5-(hydroxymethyl)-2-oxolanyl]-2-pyrimidinone

>  <PUBCHEM_IUPAC_NAME_MARKUP>  (1) 
4-amino-1-[4-hydroxy-5-(hydroxymethyl)oxolan-2-yl]pyrimidin-2-one

>  <PUBCHEM_IUPAC_NAME>  (1) 
4-amino-1-[4-hydroxy-5-(hydroxymethyl)oxolan-2-yl]pyrimidin-2-one

>  <PUBCHEM_IUPAC_SYSTEMATIC_NAME>  (1) 
4-azanyl-1-[5-(hydroxymethyl)-4-oxidanyl-oxolan-2-yl]pyrimidin-2-one

>  <PUBCHEM_IUPAC_TRADITIONAL_NAME>  (1) 
4-amino-1-(4-hydroxy-5-methylol-tetrahydrofuran-2-yl)pyrimidin-2-one

>  <PUBCHEM_IUPAC_INCHI>  (1) 
InChI=1S/C9H13N3O4/c10-7-1-2-12(9(15)11-7)8-3-5(14)6(4-13)16-8/h1-2,5-6,8,13-14H,3-4H2,(H2,10,11,15)

>  <PUBCHEM_IUPAC_INCHIKEY>  (1) 
CKTSBUTUHBMZGZ-UHFFFAOYSA-N

>  <PUBCHEM_XLOGP3>  (1) 
-1.8

>  <PUBCHEM_EXACT_MASS>  (1) 
227.090606

>  <PUBCHEM_MOLECULAR_FORMULA>  (1) 
C9H13N3O4

>  <PUBCHEM_MOLECULAR_WEIGHT>  (1) 
227.22

>  <PUBCHEM_OPENEYE_CAN_SMILES>  (1) 
C1C(C(OC1N2C=CC(=NC2=O)N)CO)O

>  <PUBCHEM_OPENEYE_ISO_SMILES>  (1) 
C1C(C(OC1N2C=CC(=NC2=O)N)CO)O

>  <PUBCHEM_CACTVS_TPSA>  (1) 
108

>  <PUBCHEM_MONOISOTOPIC_WEIGHT>  (1) 
227.090606

>  <PUBCHEM_TOTAL_CHARGE>  (1) 
0

>  <PUBCHEM_HEAVY_ATOM_COUNT>  (1) 
16

>  <PUBCHEM_ATOM_DEF_STEREO_COUNT>  (1) 
0

>  <PUBCHEM_ATOM_UDEF_STEREO_COUNT>  (1) 
3

>  <PUBCHEM_BOND_DEF_STEREO_COUNT>  (1) 
0

>  <PUBCHEM_BOND_UDEF_STEREO_COUNT>  (1) 
0

>  <PUBCHEM_ISOTOPIC_ATOM_COUNT>  (1) 
0

>  <PUBCHEM_COMPONENT_COUNT>  (1) 
1

>  <PUBCHEM_CACTVS_TAUTO_COUNT>  (1) 
-1

>  <PUBCHEM_COORDINATE_TYPE>  (1) 
1
5
255

>  <PUBCHEM_BONDANNOTATIONS>  (1) 
10  12  3
13  15  8
15  16  8
8  2  3
11  5  3
5  13  8
5  14  8
6  14  8
6  16  8

$$$$
