647
     RDKit          2D

 14 13  0  0  1  0  0  0  0  0999 V2000
    1.0233    1.0967    0.0000 P   0  0  0  0  0  0  0  0  0  0  0  0
    2.9229   -0.6758    0.0000 P   0  0  0  0  0  0  0  0  0  0  0  0
   -0.4381    1.4346    0.0000 O   0  0  0  0  0  0  0  0  0  0  0  0
    2.4848    0.7588    0.0000 O   0  0  0  0  0  0  0  0  0  0  0  0
    1.3612    2.5581    0.0000 O   0  0  0  0  0  0  0  0  0  0  0  0
    0.6855   -0.3647    0.0000 O   0  0  0  0  0  0  0  0  0  0  0  0
    1.4883   -1.1139    0.0000 O   0  0  0  0  0  0  0  0  0  0  0  0
    3.3610   -2.1104    0.0000 O   0  0  0  0  0  0  0  0  0  0  0  0
    4.3575   -0.2377    0.0000 O   0  0  0  0  0  0  0  0  0  0  0  0
   -1.4614    0.3379    0.0000 C   0  0  0  0  0  0  0  0  0  0  0  0
   -3.9462   -0.4209    0.0000 C   0  0  0  0  0  0  0  0  0  0  0  0
   -2.9229    0.6758    0.0000 C   0  0  0  0  0  0  0  0  0  0  0  0
   -5.4077   -0.0830    0.0000 C   0  0  0  0  0  0  0  0  0  0  0  0
   -3.5081   -1.8555    0.0000 C   0  0  0  0  0  0  0  0  0  0  0  0
  1  3  1  0
  1  4  1  0
  1  5  1  0
  1  6  2  0
  2  4  1  0
  2  7  1  0
  2  8  1  0
  2  9  2  0
  3 10  1  0
 10 12  1  0
 11 12  2  3
 11 13  1  0
 11 14  1  0
M  END
>  <PUBCHEM_COMPOUND_CID>  (1) 
647

>  <PUBCHEM_COMPOUND_CANONICALIZED>  (1) 
1

>  <PUBCHEM_CACTVS_COMPLEXITY>  (1) 
299

>  <PUBCHEM_CACTVS_HBOND_ACCEPTOR>  (1) 
7

>  <PUBCHEM_CACTVS_HBOND_DONOR>  (1) 
3

>  <PUBCHEM_CACTVS_ROTATABLE_BOND>  (1) 
5

>  <PUBCHEM_CACTVS_SUBSKEYS>  (1) 
AAADccBgOAMAAAAAAAAAAAAAAAAAAAAAAAAAAAAAAAAAAAAAAAAAGgAACCAADACggAICAAAAARCAQiBCAIAAAAAAAAAACAAAAAAABAAAAQAAEAAAAAAAAAAAAAAAAAAAAAAAAAAAAAAAAAAAAAAAAAAAAA==

>  <PUBCHEM_IUPAC_OPENEYE_NAME>  (1) 
3-methylbut-2-enyl phosphono hydrogen phosphate

>  <PUBCHEM_IUPAC_CAS_NAME>  (1) 
3-methylbut-2-enyl phosphono hydrogen phosphate

>  <PUBCHEM_IUPAC_NAME_MARKUP>  (1) 
3-methylbut-2-enyl phosphono hydrogen phosphate

>  <PUBCHEM_IUPAC_NAME>  (1) 
3-methylbut-2-enyl phosphono hydrogen phosphate

>  <PUBCHEM_IUPAC_SYSTEMATIC_NAME>  (1) 
3-methylbut-2-enyl phosphono hydrogen phosphate

>  <PUBCHEM_IUPAC_TRADITIONAL_NAME>  (1) 
3-methylbut-2-enyl phosphono hydrogen phosphate

>  <PUBCHEM_IUPAC_INCHI>  (1) 
InChI=1S/C5H12O7P2/c1-5(2)3-4-11-14(9,10)12-13(6,7)8/h3H,4H2,1-2H3,(H,9,10)(H2,6,7,8)

>  <PUBCHEM_IUPAC_INCHIKEY>  (1) 
CBIDRCWHNCKSTO-UHFFFAOYSA-N

>  <PUBCHEM_XLOGP3_AA>  (1) 
-1.1

>  <PUBCHEM_EXACT_MASS>  (1) 
246.005827

>  <PUBCHEM_MOLECULAR_FORMULA>  (1) 
C5H12O7P2

>  <PUBCHEM_MOLECULAR_WEIGHT>  (1) 
246.09

>  <PUBCHEM_OPENEYE_CAN_SMILES>  (1) 
CC(=CCOP(=O)(O)OP(=O)(O)O)C

>  <PUBCHEM_OPENEYE_ISO_SMILES>  (1) 
CC(=CCOP(=O)(O)OP(=O)(O)O)C

>  <PUBCHEM_CACTVS_TPSA>  (1) 
113

>  <PUBCHEM_MONOISOTOPIC_WEIGHT>  (1) 
246.005827

>  <PUBCHEM_TOTAL_CHARGE>  (1) 
0

>  <PUBCHEM_HEAVY_ATOM_COUNT>  (1) 
14

>  <PUBCHEM_ATOM_DEF_STEREO_COUNT>  (1) 
0

>  <PUBCHEM_ATOM_UDEF_STEREO_COUNT>  (1) 
0

>  <PUBCHEM_BOND_DEF_STEREO_COUNT>  (1) 
0

>  <PUBCHEM_BOND_UDEF_STEREO_COUNT>  (1) 
0

>  <PUBCHEM_ISOTOPIC_ATOM_COUNT>  (1) 
0

>  <PUBCHEM_COMPONENT_COUNT>  (1) 
1

>  <PUBCHEM_CACTVS_TAUTO_COUNT>  (1) 
-1

>  <PUBCHEM_COORDINATE_TYPE>  (1) 
1
5
255

$$$$
