652
     RDKit          2D

 13 12  0  0  1  0  0  0  0  0999 V2000
   -6.0618   -0.8243    0.0000 O   0  0  0  0  0  0  0  0  0  0  0  0
   -4.8772    1.4880    0.0000 O   0  0  0  0  0  0  0  0  0  0  0  0
    2.9072    1.8790    0.0000 N   0  0  0  0  0  0  0  0  0  0  0  0
    4.3927   -1.8012    0.0000 N   0  0  0  0  0  0  0  0  0  0  0  0
    2.9824    0.3808    0.0000 C   0  0  0  0  0  0  0  0  0  0  0  0
    1.7226   -0.4334    0.0000 C   0  0  0  0  0  0  0  0  0  0  0  0
    0.3876    0.2505    0.0000 C   0  0  0  0  0  0  0  0  0  0  0  0
    4.3175   -0.3030    0.0000 C   0  0  0  0  0  0  0  0  0  0  0  0
   -0.8722   -0.5637    0.0000 C   0  0  0  0  0  0  0  0  0  0  0  0
   -2.2072    0.1202    0.0000 C   0  0  0  0  0  0  0  0  0  0  0  0
    5.5772    0.5112    0.0000 C   0  0  0  0  0  0  0  0  0  0  0  0
   -3.4670   -0.6940    0.0000 C   0  0  0  0  0  0  0  0  0  0  0  0
   -4.8020   -0.0101    0.0000 C   0  0  0  0  0  0  0  0  0  0  0  0
  1 13  1  0
  2 13  2  0
  3  5  1  0
  4  8  1  0
  5  6  1  0
  5  8  1  0
  6  7  1  0
  7  9  1  0
  8 11  1  0
  9 10  1  0
 10 12  1  0
 12 13  1  0
M  END
>  <PUBCHEM_COMPOUND_CID>  (1) 
652

>  <PUBCHEM_COMPOUND_CANONICALIZED>  (1) 
1

>  <PUBCHEM_CACTVS_COMPLEXITY>  (1) 
151

>  <PUBCHEM_CACTVS_HBOND_ACCEPTOR>  (1) 
4

>  <PUBCHEM_CACTVS_HBOND_DONOR>  (1) 
3

>  <PUBCHEM_CACTVS_ROTATABLE_BOND>  (1) 
7

>  <PUBCHEM_CACTVS_SUBSKEYS>  (1) 
AAADceBzMAAAAAAAAAAAAAAAAAAAAAAAAAAAAAAAAAAAAAAAAAAAHgAQCAAACCjBgAQCCABAAgAIAACQCAAAAAAAAAAAAIEAAAAAQBIAgAAAQAAEEAAAAAGYyKCAAAAAAAAAAAAAAAAAAAAAAAAAAAAAAA==

>  <PUBCHEM_IUPAC_OPENEYE_NAME>  (1) 
7,8-diaminononanoic acid

>  <PUBCHEM_IUPAC_CAS_NAME>  (1) 
7,8-diaminononanoic acid

>  <PUBCHEM_IUPAC_NAME_MARKUP>  (1) 
7,8-diaminononanoic acid

>  <PUBCHEM_IUPAC_NAME>  (1) 
7,8-diaminononanoic acid

>  <PUBCHEM_IUPAC_SYSTEMATIC_NAME>  (1) 
7,8-bis(azanyl)nonanoic acid

>  <PUBCHEM_IUPAC_TRADITIONAL_NAME>  (1) 
7,8-diaminopelargonic acid

>  <PUBCHEM_IUPAC_INCHI>  (1) 
InChI=1S/C9H20N2O2/c1-7(10)8(11)5-3-2-4-6-9(12)13/h7-8H,2-6,10-11H2,1H3,(H,12,13)

>  <PUBCHEM_IUPAC_INCHIKEY>  (1) 
KCEGBPIYGIWCDH-UHFFFAOYSA-N

>  <PUBCHEM_XLOGP3_AA>  (1) 
-2.3

>  <PUBCHEM_EXACT_MASS>  (1) 
188.152478

>  <PUBCHEM_MOLECULAR_FORMULA>  (1) 
C9H20N2O2

>  <PUBCHEM_MOLECULAR_WEIGHT>  (1) 
188.27

>  <PUBCHEM_OPENEYE_CAN_SMILES>  (1) 
CC(C(CCCCCC(=O)O)N)N

>  <PUBCHEM_OPENEYE_ISO_SMILES>  (1) 
CC(C(CCCCCC(=O)O)N)N

>  <PUBCHEM_CACTVS_TPSA>  (1) 
89.3

>  <PUBCHEM_MONOISOTOPIC_WEIGHT>  (1) 
188.152478

>  <PUBCHEM_TOTAL_CHARGE>  (1) 
0

>  <PUBCHEM_HEAVY_ATOM_COUNT>  (1) 
13

>  <PUBCHEM_ATOM_DEF_STEREO_COUNT>  (1) 
0

>  <PUBCHEM_ATOM_UDEF_STEREO_COUNT>  (1) 
2

>  <PUBCHEM_BOND_DEF_STEREO_COUNT>  (1) 
0

>  <PUBCHEM_BOND_UDEF_STEREO_COUNT>  (1) 
0

>  <PUBCHEM_ISOTOPIC_ATOM_COUNT>  (1) 
0

>  <PUBCHEM_COMPONENT_COUNT>  (1) 
1

>  <PUBCHEM_CACTVS_TAUTO_COUNT>  (1) 
-1

>  <PUBCHEM_COORDINATE_TYPE>  (1) 
1
5
255

>  <PUBCHEM_BONDANNOTATIONS>  (1) 
5  3  3
8  4  3

$$$$
