657
     RDKit          2D

 50 51  0  0  1  0  0  0  0  0999 V2000
   -4.8861   -1.2905    0.0000 O   0  0  0  0  0  0  0  0  0  0  0  0
   -1.6317    0.9808    0.0000 O   0  0  0  0  0  0  0  0  0  0  0  0
   -1.9024   -1.6031    0.0000 O   0  0  0  0  0  0  0  0  0  0  0  0
   -6.9885    0.2360    0.0000 O   0  0  0  0  0  0  0  0  0  0  0  0
   -6.1072    1.4498    0.0000 O   0  0  0  0  0  0  0  0  0  0  0  0
   -4.3446    3.8774    0.0000 O   0  0  0  0  0  0  0  0  0  0  0  0
   -6.6487   -3.7181    0.0000 O   0  0  0  0  0  0  0  0  0  0  0  0
   -9.6324   -3.4054    0.0000 O   0  0  0  0  0  0  0  0  0  0  0  0
  -10.8534   -0.6651    0.0000 O   0  0  0  0  0  0  0  0  0  0  0  0
    0.1309    3.4084    0.0000 O   0  0  0  0  0  0  0  0  0  0  0  0
   -8.2095    2.9763    0.0000 O   0  0  0  0  0  0  0  0  0  0  0  0
  -10.3119    4.5027    0.0000 O   0  0  0  0  0  0  0  0  0  0  0  0
   14.7095    5.7991    0.0000 O   0  0  0  0  0  0  0  0  0  0  0  0
   14.4387    3.2152    0.0000 O   0  0  0  0  0  0  0  0  0  0  0  0
   -4.0048   -0.0767    0.0000 C   0  0  0  0  0  0  0  0  0  0  0  0
   -4.6153    1.2935    0.0000 C   0  0  0  0  0  0  0  0  0  0  0  0
   -2.5130   -0.2330    0.0000 C   0  0  0  0  0  0  0  0  0  0  0  0
   -3.7340    2.5073    0.0000 C   0  0  0  0  0  0  0  0  0  0  0  0
   -2.2422    2.3509    0.0000 C   0  0  0  0  0  0  0  0  0  0  0  0
   -6.3779   -1.1341    0.0000 C   0  0  0  0  0  0  0  0  0  0  0  0
   -7.2592   -2.3479    0.0000 C   0  0  0  0  0  0  0  0  0  0  0  0
   -8.7511   -2.1916    0.0000 C   0  0  0  0  0  0  0  0  0  0  0  0
   -9.3616   -0.8215    0.0000 C   0  0  0  0  0  0  0  0  0  0  0  0
   -0.4106   -1.7595    0.0000 C   0  0  0  0  0  0  0  0  0  0  0  0
   -8.4803    0.3923    0.0000 C   0  0  0  0  0  0  0  0  0  0  0  0
    0.4707   -0.5457    0.0000 C   0  0  0  0  0  0  0  0  0  0  0  0
    0.1999   -3.1296    0.0000 C   0  0  0  0  0  0  0  0  0  0  0  0
   -1.3609    3.5647    0.0000 C   0  0  0  0  0  0  0  0  0  0  0  0
    1.9625   -0.7020    0.0000 C   0  0  0  0  0  0  0  0  0  0  0  0
   -9.0908    1.7625    0.0000 C   0  0  0  0  0  0  0  0  0  0  0  0
    1.6918   -3.2859    0.0000 C   0  0  0  0  0  0  0  0  0  0  0  0
    2.8438    0.5118    0.0000 C   0  0  0  0  0  0  0  0  0  0  0  0
    2.3023   -4.6561    0.0000 C   0  0  0  0  0  0  0  0  0  0  0  0
    4.3357    0.3555    0.0000 C   0  0  0  0  0  0  0  0  0  0  0  0
    3.7941   -4.8124    0.0000 C   0  0  0  0  0  0  0  0  0  0  0  0
    5.2170    1.5693    0.0000 C   0  0  0  0  0  0  0  0  0  0  0  0
    4.4046   -6.1825    0.0000 C   0  0  0  0  0  0  0  0  0  0  0  0
    6.7088    1.4129    0.0000 C   0  0  0  0  0  0  0  0  0  0  0  0
    5.8965   -6.3388    0.0000 C   0  0  0  0  0  0  0  0  0  0  0  0
    7.5901    2.6267    0.0000 C   0  0  0  0  0  0  0  0  0  0  0  0
    6.5070   -7.7090    0.0000 C   0  0  0  0  0  0  0  0  0  0  0  0
    9.0819    2.4704    0.0000 C   0  0  0  0  0  0  0  0  0  0  0  0
   -8.8200    4.3464    0.0000 C   0  0  0  0  0  0  0  0  0  0  0  0
    9.9632    3.6842    0.0000 C   0  0  0  0  0  0  0  0  0  0  0  0
    7.9988   -7.8653    0.0000 C   0  0  0  0  0  0  0  0  0  0  0  0
   -7.9387    5.5602    0.0000 C   0  0  0  0  0  0  0  0  0  0  0  0
   11.4551    3.5279    0.0000 C   0  0  0  0  0  0  0  0  0  0  0  0
    8.6094   -9.2354    0.0000 C   0  0  0  0  0  0  0  0  0  0  0  0
   12.3364    4.7417    0.0000 C   0  0  0  0  0  0  0  0  0  0  0  0
   13.8282    4.5853    0.0000 C   0  0  0  0  0  0  0  0  0  0  0  0
  1 15  1  0
  1 20  1  0
  2 17  1  0
  2 19  1  0
  3 17  1  0
  3 24  1  0
  4 20  1  0
  4 25  1  0
  5 16  1  0
  6 18  1  0
  7 21  1  0
  8 22  1  0
  9 23  1  0
 10 28  1  0
 11 30  1  0
 11 43  1  0
 12 43  2  0
 13 50  1  0
 14 50  2  0
 15 16  1  0
 15 17  1  0
 16 18  1  0
 18 19  1  0
 19 28  1  0
 20 21  1  0
 21 22  1  0
 22 23  1  0
 23 25  1  0
 24 26  1  0
 24 27  1  0
 25 30  1  0
 26 29  1  0
 27 31  1  0
 29 32  1  0
 31 33  1  0
 32 34  1  0
 33 35  1  0
 34 36  1  0
 35 37  1  0
 36 38  1  0
 37 39  1  0
 38 40  1  0
 39 41  1  0
 40 42  1  0
 41 45  1  0
 42 44  1  0
 43 46  1  0
 44 47  1  0
 45 48  1  0
 47 49  1  0
 49 50  1  0
M  END
>  <PUBCHEM_COMPOUND_CID>  (1) 
657

>  <PUBCHEM_COMPOUND_CANONICALIZED>  (1) 
1

>  <PUBCHEM_CACTVS_COMPLEXITY>  (1) 
908

>  <PUBCHEM_CACTVS_HBOND_ACCEPTOR>  (1) 
14

>  <PUBCHEM_CACTVS_HBOND_DONOR>  (1) 
7

>  <PUBCHEM_CACTVS_ROTATABLE_BOND>  (1) 
28

>  <PUBCHEM_CACTVS_SUBSKEYS>  (1) 
AAADcfB8PAAAAAAAAAAAAAAAAAAAAAAAAAAkSAAAAAAAAAAAAAAAGgAACAAACBSwgAMCCAAABgAIAACQCAAAAAAAAAAAAAEAAAAREBIAAAAiQAAFAAAHAAHI6KyAAAAAAAAAAAAAAAAAAAAAAAAAAAAAAA==

>  <PUBCHEM_IUPAC_OPENEYE_NAME>  (1) 
13-[3-[6-(acetoxymethyl)-3,4,5-trihydroxy-tetrahydropyran-2-yl]oxy-4,5-dihydroxy-6-(hydroxymethyl)tetrahydropyran-2-yl]oxydocosanoic acid

>  <PUBCHEM_IUPAC_CAS_NAME>  (1) 
13-[[3-[[6-(acetyloxymethyl)-3,4,5-trihydroxy-2-oxanyl]oxy]-4,5-dihydroxy-6-(hydroxymethyl)-2-oxanyl]oxy]docosanoic acid

>  <PUBCHEM_IUPAC_NAME_MARKUP>  (1) 
13-[3-[6-(acetyloxymethyl)-3,4,5-trihydroxyoxan-2-yl]oxy-4,5-dihydroxy-6-(hydroxymethyl)oxan-2-yl]oxydocosanoic acid

>  <PUBCHEM_IUPAC_NAME>  (1) 
13-[3-[6-(acetyloxymethyl)-3,4,5-trihydroxyoxan-2-yl]oxy-4,5-dihydroxy-6-(hydroxymethyl)oxan-2-yl]oxydocosanoic acid

>  <PUBCHEM_IUPAC_SYSTEMATIC_NAME>  (1) 
13-[3-[6-(acetyloxymethyl)-3,4,5-tris(oxidanyl)oxan-2-yl]oxy-6-(hydroxymethyl)-4,5-bis(oxidanyl)oxan-2-yl]oxydocosanoic acid

>  <PUBCHEM_IUPAC_TRADITIONAL_NAME>  (1) 
13-[3-[6-(acetoxymethyl)-3,4,5-trihydroxy-tetrahydropyran-2-yl]oxy-4,5-dihydroxy-6-methylol-tetrahydropyran-2-yl]oxybehenic acid

>  <PUBCHEM_IUPAC_INCHI>  (1) 
InChI=1S/C36H66O14/c1-3-4-5-6-10-13-16-19-25(20-17-14-11-8-7-9-12-15-18-21-28(39)40)47-36-34(32(44)29(41)26(22-37)48-36)50-35-33(45)31(43)30(42)27(49-35)23-46-24(2)38/h25-27,29-37,41-45H,3-23H2,1-2H3,(H,39,40)

>  <PUBCHEM_IUPAC_INCHIKEY>  (1) 
DYDPBEMJTPLKEJ-UHFFFAOYSA-N

>  <PUBCHEM_XLOGP3_AA>  (1) 
5.3

>  <PUBCHEM_EXACT_MASS>  (1) 
722.445257

>  <PUBCHEM_MOLECULAR_FORMULA>  (1) 
C36H66O14

>  <PUBCHEM_MOLECULAR_WEIGHT>  (1) 
722.9

>  <PUBCHEM_OPENEYE_CAN_SMILES>  (1) 
CCCCCCCCCC(CCCCCCCCCCCC(=O)O)OC1C(C(C(C(O1)CO)O)O)OC2C(C(C(C(O2)COC(=O)C)O)O)O

>  <PUBCHEM_OPENEYE_ISO_SMILES>  (1) 
CCCCCCCCCC(CCCCCCCCCCCC(=O)O)OC1C(C(C(C(O1)CO)O)O)OC2C(C(C(C(O2)COC(=O)C)O)O)O

>  <PUBCHEM_CACTVS_TPSA>  (1) 
222

>  <PUBCHEM_MONOISOTOPIC_WEIGHT>  (1) 
722.445257

>  <PUBCHEM_TOTAL_CHARGE>  (1) 
0

>  <PUBCHEM_HEAVY_ATOM_COUNT>  (1) 
50

>  <PUBCHEM_ATOM_DEF_STEREO_COUNT>  (1) 
0

>  <PUBCHEM_ATOM_UDEF_STEREO_COUNT>  (1) 
11

>  <PUBCHEM_BOND_DEF_STEREO_COUNT>  (1) 
0

>  <PUBCHEM_BOND_UDEF_STEREO_COUNT>  (1) 
0

>  <PUBCHEM_ISOTOPIC_ATOM_COUNT>  (1) 
0

>  <PUBCHEM_COMPONENT_COUNT>  (1) 
1

>  <PUBCHEM_CACTVS_TAUTO_COUNT>  (1) 
-1

>  <PUBCHEM_COORDINATE_TYPE>  (1) 
1
5
255

>  <PUBCHEM_BONDANNOTATIONS>  (1) 
15  1  3
20  1  3
19  28  3
24  27  3
25  30  3
17  3  3
16  5  3
18  6  3
21  7  3
22  8  3
23  9  3

$$$$
