658
     RDKit          2D

 53 54  0  0  1  0  0  0  0  0999 V2000
   -4.9737   -1.5313    0.0000 O   0  0  0  0  0  0  0  0  0  0  0  0
   -1.6994    0.7113    0.0000 O   0  0  0  0  0  0  0  0  0  0  0  0
   -1.9929   -1.8702    0.0000 O   0  0  0  0  0  0  0  0  0  0  0  0
   -7.0625    0.0136    0.0000 O   0  0  0  0  0  0  0  0  0  0  0  0
   -6.1706    1.2196    0.0000 O   0  0  0  0  0  0  0  0  0  0  0  0
   -4.3867    3.6316    0.0000 O   0  0  0  0  0  0  0  0  0  0  0  0
   -6.7576   -3.9433    0.0000 O   0  0  0  0  0  0  0  0  0  0  0  0
   -9.7384   -3.6043    0.0000 O   0  0  0  0  0  0  0  0  0  0  0  0
  -10.9353   -0.8534    0.0000 O   0  0  0  0  0  0  0  0  0  0  0  0
    0.0845    3.1232    0.0000 O   0  0  0  0  0  0  0  0  0  0  0  0
   -8.2594    2.7645    0.0000 O   0  0  0  0  0  0  0  0  0  0  0  0
    0.3780    5.7047    0.0000 O   0  0  0  0  0  0  0  0  0  0  0  0
  -10.3483    4.3094    0.0000 O   0  0  0  0  0  0  0  0  0  0  0  0
   14.6835    5.3856    0.0000 O   0  0  0  0  0  0  0  0  0  0  0  0
   14.3900    2.8041    0.0000 O   0  0  0  0  0  0  0  0  0  0  0  0
   -4.0817   -0.3253    0.0000 C   0  0  0  0  0  0  0  0  0  0  0  0
   -4.6802    1.0502    0.0000 C   0  0  0  0  0  0  0  0  0  0  0  0
   -2.5913   -0.4947    0.0000 C   0  0  0  0  0  0  0  0  0  0  0  0
   -3.7882    2.2562    0.0000 C   0  0  0  0  0  0  0  0  0  0  0  0
   -2.2978    2.0867    0.0000 C   0  0  0  0  0  0  0  0  0  0  0  0
   -6.4641   -1.3618    0.0000 C   0  0  0  0  0  0  0  0  0  0  0  0
   -7.3561   -2.5678    0.0000 C   0  0  0  0  0  0  0  0  0  0  0  0
   -8.8464   -2.3984    0.0000 C   0  0  0  0  0  0  0  0  0  0  0  0
   -9.4449   -1.0229    0.0000 C   0  0  0  0  0  0  0  0  0  0  0  0
   -0.5025   -2.0397    0.0000 C   0  0  0  0  0  0  0  0  0  0  0  0
   -8.5529    0.1831    0.0000 C   0  0  0  0  0  0  0  0  0  0  0  0
   -1.4059    3.2927    0.0000 C   0  0  0  0  0  0  0  0  0  0  0  0
    0.3894   -0.8337    0.0000 C   0  0  0  0  0  0  0  0  0  0  0  0
    0.0959   -3.4151    0.0000 C   0  0  0  0  0  0  0  0  0  0  0  0
    1.8798   -1.0031    0.0000 C   0  0  0  0  0  0  0  0  0  0  0  0
   -9.1514    1.5585    0.0000 C   0  0  0  0  0  0  0  0  0  0  0  0
    1.5863   -3.5846    0.0000 C   0  0  0  0  0  0  0  0  0  0  0  0
    2.7718    0.2029    0.0000 C   0  0  0  0  0  0  0  0  0  0  0  0
    2.1848   -4.9600    0.0000 C   0  0  0  0  0  0  0  0  0  0  0  0
    4.2622    0.0334    0.0000 C   0  0  0  0  0  0  0  0  0  0  0  0
    3.6752   -5.1295    0.0000 C   0  0  0  0  0  0  0  0  0  0  0  0
    5.1541    1.2394    0.0000 C   0  0  0  0  0  0  0  0  0  0  0  0
    4.2736   -6.5049    0.0000 C   0  0  0  0  0  0  0  0  0  0  0  0
    6.6445    1.0700    0.0000 C   0  0  0  0  0  0  0  0  0  0  0  0
    5.7640   -6.6744    0.0000 C   0  0  0  0  0  0  0  0  0  0  0  0
    0.9765    4.3292    0.0000 C   0  0  0  0  0  0  0  0  0  0  0  0
    7.5365    2.2759    0.0000 C   0  0  0  0  0  0  0  0  0  0  0  0
    6.3625   -8.0498    0.0000 C   0  0  0  0  0  0  0  0  0  0  0  0
    9.0269    2.1065    0.0000 C   0  0  0  0  0  0  0  0  0  0  0  0
   -8.8579    4.1400    0.0000 C   0  0  0  0  0  0  0  0  0  0  0  0
    9.9188    3.3125    0.0000 C   0  0  0  0  0  0  0  0  0  0  0  0
    2.4669    4.1598    0.0000 C   0  0  0  0  0  0  0  0  0  0  0  0
    7.8529   -8.2193    0.0000 C   0  0  0  0  0  0  0  0  0  0  0  0
   -7.9659    5.3460    0.0000 C   0  0  0  0  0  0  0  0  0  0  0  0
   11.4092    3.1430    0.0000 C   0  0  0  0  0  0  0  0  0  0  0  0
    8.4513   -9.5947    0.0000 C   0  0  0  0  0  0  0  0  0  0  0  0
   12.3012    4.3490    0.0000 C   0  0  0  0  0  0  0  0  0  0  0  0
   13.7916    4.1796    0.0000 C   0  0  0  0  0  0  0  0  0  0  0  0
  1 16  1  0
  1 21  1  0
  2 18  1  0
  2 20  1  0
  3 18  1  0
  3 25  1  0
  4 21  1  0
  4 26  1  0
  5 17  1  0
  6 19  1  0
  7 22  1  0
  8 23  1  0
  9 24  1  0
 10 27  1  0
 10 41  1  0
 11 31  1  0
 11 45  1  0
 12 41  2  0
 13 45  2  0
 14 53  1  0
 15 53  2  0
 16 17  1  0
 16 18  1  0
 17 19  1  0
 19 20  1  0
 20 27  1  0
 21 22  1  0
 22 23  1  0
 23 24  1  0
 24 26  1  0
 25 28  1  0
 25 29  1  0
 26 31  1  0
 28 30  1  0
 29 32  1  0
 30 33  1  0
 32 34  1  0
 33 35  1  0
 34 36  1  0
 35 37  1  0
 36 38  1  0
 37 39  1  0
 38 40  1  0
 39 42  1  0
 40 43  1  0
 41 47  1  0
 42 44  1  0
 43 48  1  0
 44 46  1  0
 45 49  1  0
 46 50  1  0
 48 51  1  0
 50 52  1  0
 52 53  1  0
M  END
>  <PUBCHEM_COMPOUND_CID>  (1) 
658

>  <PUBCHEM_COMPOUND_CANONICALIZED>  (1) 
1

>  <PUBCHEM_CACTVS_COMPLEXITY>  (1) 
1010

>  <PUBCHEM_CACTVS_HBOND_ACCEPTOR>  (1) 
15

>  <PUBCHEM_CACTVS_HBOND_DONOR>  (1) 
6

>  <PUBCHEM_CACTVS_ROTATABLE_BOND>  (1) 
30

>  <PUBCHEM_CACTVS_SUBSKEYS>  (1) 
AAADcfB8PAAAAAAAAAAAAAAAAAAAAAAAAAAkSAAAAAAAAAAAAAAAGgAACAAACBSwgAMCCAAABgAIAACQCAAAAAAAAAAAAAEAAAAREBIAAAAiQAAFAAAHAAHI6KyAAAAAAAAAAAAAAAAAAAAAAAAAAAAAAA==

>  <PUBCHEM_IUPAC_OPENEYE_NAME>  (1) 
13-[6-(acetoxymethyl)-3-[6-(acetoxymethyl)-3,4,5-trihydroxy-tetrahydropyran-2-yl]oxy-4,5-dihydroxy-tetrahydropyran-2-yl]oxydocosanoic acid

>  <PUBCHEM_IUPAC_CAS_NAME>  (1) 
13-[[6-(acetyloxymethyl)-3-[[6-(acetyloxymethyl)-3,4,5-trihydroxy-2-oxanyl]oxy]-4,5-dihydroxy-2-oxanyl]oxy]docosanoic acid

>  <PUBCHEM_IUPAC_NAME_MARKUP>  (1) 
13-[6-(acetyloxymethyl)-3-[6-(acetyloxymethyl)-3,4,5-trihydroxyoxan-2-yl]oxy-4,5-dihydroxyoxan-2-yl]oxydocosanoic acid

>  <PUBCHEM_IUPAC_NAME>  (1) 
13-[6-(acetyloxymethyl)-3-[6-(acetyloxymethyl)-3,4,5-trihydroxyoxan-2-yl]oxy-4,5-dihydroxyoxan-2-yl]oxydocosanoic acid

>  <PUBCHEM_IUPAC_SYSTEMATIC_NAME>  (1) 
13-[6-(acetyloxymethyl)-3-[6-(acetyloxymethyl)-3,4,5-tris(oxidanyl)oxan-2-yl]oxy-4,5-bis(oxidanyl)oxan-2-yl]oxydocosanoic acid

>  <PUBCHEM_IUPAC_TRADITIONAL_NAME>  (1) 
13-[6-(acetoxymethyl)-3-[6-(acetoxymethyl)-3,4,5-trihydroxy-tetrahydropyran-2-yl]oxy-4,5-dihydroxy-tetrahydropyran-2-yl]oxybehenic acid

>  <PUBCHEM_IUPAC_INCHI>  (1) 
InChI=1S/C38H68O15/c1-4-5-6-7-11-14-17-20-27(21-18-15-12-9-8-10-13-16-19-22-30(41)42)50-38-36(34(46)32(44)29(52-38)24-49-26(3)40)53-37-35(47)33(45)31(43)28(51-37)23-48-25(2)39/h27-29,31-38,43-47H,4-24H2,1-3H3,(H,41,42)

>  <PUBCHEM_IUPAC_INCHIKEY>  (1) 
LGIFCELMJBBHMO-UHFFFAOYSA-N

>  <PUBCHEM_XLOGP3_AA>  (1) 
5.3

>  <PUBCHEM_EXACT_MASS>  (1) 
764.455821

>  <PUBCHEM_MOLECULAR_FORMULA>  (1) 
C38H68O15

>  <PUBCHEM_MOLECULAR_WEIGHT>  (1) 
764.9

>  <PUBCHEM_OPENEYE_CAN_SMILES>  (1) 
CCCCCCCCCC(CCCCCCCCCCCC(=O)O)OC1C(C(C(C(O1)COC(=O)C)O)O)OC2C(C(C(C(O2)COC(=O)C)O)O)O

>  <PUBCHEM_OPENEYE_ISO_SMILES>  (1) 
CCCCCCCCCC(CCCCCCCCCCCC(=O)O)OC1C(C(C(C(O1)COC(=O)C)O)O)OC2C(C(C(C(O2)COC(=O)C)O)O)O

>  <PUBCHEM_CACTVS_TPSA>  (1) 
228

>  <PUBCHEM_MONOISOTOPIC_WEIGHT>  (1) 
764.455821

>  <PUBCHEM_TOTAL_CHARGE>  (1) 
0

>  <PUBCHEM_HEAVY_ATOM_COUNT>  (1) 
53

>  <PUBCHEM_ATOM_DEF_STEREO_COUNT>  (1) 
0

>  <PUBCHEM_ATOM_UDEF_STEREO_COUNT>  (1) 
11

>  <PUBCHEM_BOND_DEF_STEREO_COUNT>  (1) 
0

>  <PUBCHEM_BOND_UDEF_STEREO_COUNT>  (1) 
0

>  <PUBCHEM_ISOTOPIC_ATOM_COUNT>  (1) 
0

>  <PUBCHEM_COMPONENT_COUNT>  (1) 
1

>  <PUBCHEM_CACTVS_TAUTO_COUNT>  (1) 
-1

>  <PUBCHEM_COORDINATE_TYPE>  (1) 
1
5
255

>  <PUBCHEM_BONDANNOTATIONS>  (1) 
16  1  3
21  1  3
20  27  3
25  29  3
26  31  3
18  3  3
17  5  3
19  6  3
22  7  3
23  8  3
24  9  3

$$$$
