663
     RDKit          2D

 12 11  0  0  1  0  0  0  0  0999 V2000
    2.2782   -1.7358    0.0000 S   0  0  0  0  0  0  0  0  0  0  0  0
    6.0268    0.7538    0.0000 S   0  0  0  0  0  0  0  0  0  0  0  0
   -4.4390    1.6002    0.0000 O   0  0  0  0  0  0  0  0  0  0  0  0
   -5.5946   -0.7267    0.0000 N   0  0  0  0  0  0  0  0  0  0  0  0
    0.8408    0.4285    0.0000 C   0  0  0  0  0  0  0  0  0  0  0  0
    2.1843   -0.2387    0.0000 C   0  0  0  0  0  0  0  0  0  0  0  0
   -0.4087   -0.4014    0.0000 C   0  0  0  0  0  0  0  0  0  0  0  0
   -1.7521    0.2658    0.0000 C   0  0  0  0  0  0  0  0  0  0  0  0
    3.4338    0.5912    0.0000 C   0  0  0  0  0  0  0  0  0  0  0  0
   -3.0017   -0.5640    0.0000 C   0  0  0  0  0  0  0  0  0  0  0  0
    4.7773   -0.0760    0.0000 C   0  0  0  0  0  0  0  0  0  0  0  0
   -4.3451    0.1031    0.0000 C   0  0  0  0  0  0  0  0  0  0  0  0
  1  6  1  0
  2 11  1  0
  3 12  2  0
  4 12  1  0
  5  6  1  0
  5  7  1  0
  6  9  1  0
  7  8  1  0
  8 10  1  0
  9 11  1  0
 10 12  1  0
M  END
>  <PUBCHEM_COMPOUND_CID>  (1) 
663

>  <PUBCHEM_COMPOUND_CANONICALIZED>  (1) 
1

>  <PUBCHEM_CACTVS_COMPLEXITY>  (1) 
130

>  <PUBCHEM_CACTVS_HBOND_ACCEPTOR>  (1) 
3

>  <PUBCHEM_CACTVS_HBOND_DONOR>  (1) 
3

>  <PUBCHEM_CACTVS_ROTATABLE_BOND>  (1) 
7

>  <PUBCHEM_CACTVS_SUBSKEYS>  (1) 
AAADceByIABgAAAAAAAAAAAAAAAAAAAAAAAAAAAAAAAAAAAAAAAAHgQQAAAACACFwACAAABAAAQIAAEQEAAAAAAAAAAAAAEAAAAAABIAgAAAAAAAEAAAAAEYiICAAAAAAAAAAAAAAAAAAAAAAAAAAAAAAA==

>  <PUBCHEM_IUPAC_OPENEYE_NAME>  (1) 
6,8-bis(sulfanyl)octanamide

>  <PUBCHEM_IUPAC_CAS_NAME>  (1) 
6,8-dimercaptooctanamide

>  <PUBCHEM_IUPAC_NAME_MARKUP>  (1) 
6,8-bis(sulfanyl)octanamide

>  <PUBCHEM_IUPAC_NAME>  (1) 
6,8-bis(sulfanyl)octanamide

>  <PUBCHEM_IUPAC_SYSTEMATIC_NAME>  (1) 
6,8-bis(sulfanyl)octanamide

>  <PUBCHEM_IUPAC_TRADITIONAL_NAME>  (1) 
6,8-dimercaptocaprylamide

>  <PUBCHEM_IUPAC_INCHI>  (1) 
InChI=1S/C8H17NOS2/c9-8(10)4-2-1-3-7(12)5-6-11/h7,11-12H,1-6H2,(H2,9,10)

>  <PUBCHEM_IUPAC_INCHIKEY>  (1) 
VLYUGYAKYZETRF-UHFFFAOYSA-N

>  <PUBCHEM_XLOGP3_AA>  (1) 
1.1

>  <PUBCHEM_EXACT_MASS>  (1) 
207.075157

>  <PUBCHEM_MOLECULAR_FORMULA>  (1) 
C8H17NOS2

>  <PUBCHEM_MOLECULAR_WEIGHT>  (1) 
207.4

>  <PUBCHEM_OPENEYE_CAN_SMILES>  (1) 
C(CCC(=O)N)CC(CCS)S

>  <PUBCHEM_OPENEYE_ISO_SMILES>  (1) 
C(CCC(=O)N)CC(CCS)S

>  <PUBCHEM_CACTVS_TPSA>  (1) 
45.1

>  <PUBCHEM_MONOISOTOPIC_WEIGHT>  (1) 
207.075157

>  <PUBCHEM_TOTAL_CHARGE>  (1) 
0

>  <PUBCHEM_HEAVY_ATOM_COUNT>  (1) 
12

>  <PUBCHEM_ATOM_DEF_STEREO_COUNT>  (1) 
0

>  <PUBCHEM_ATOM_UDEF_STEREO_COUNT>  (1) 
1

>  <PUBCHEM_BOND_DEF_STEREO_COUNT>  (1) 
0

>  <PUBCHEM_BOND_UDEF_STEREO_COUNT>  (1) 
0

>  <PUBCHEM_ISOTOPIC_ATOM_COUNT>  (1) 
0

>  <PUBCHEM_COMPONENT_COUNT>  (1) 
1

>  <PUBCHEM_CACTVS_TAUTO_COUNT>  (1) 
-1

>  <PUBCHEM_COORDINATE_TYPE>  (1) 
1
5
255

>  <PUBCHEM_BONDANNOTATIONS>  (1) 
6  1  3

$$$$
