671
     RDKit          2D

 15 16  0  0  0  0  0  0  0  0999 V2000
   -1.1526   -2.4003    0.0000 O   0  0  0  0  0  0  0  0  0  0  0  0
    0.9044    3.2360    0.0000 O   0  0  0  0  0  0  0  0  0  0  0  0
   -4.0421    1.0494    0.0000 O   0  0  0  0  0  0  0  0  0  0  0  0
   -3.5932   -1.5096    0.0000 O   0  0  0  0  0  0  0  0  0  0  0  0
    0.8391   -0.7320    0.0000 C   0  0  0  0  0  0  0  0  0  0  0  0
    1.3534    0.6770    0.0000 C   0  0  0  0  0  0  0  0  0  0  0  0
   -0.6383   -0.9912    0.0000 C   0  0  0  0  0  0  0  0  0  0  0  0
    0.3902    1.8270    0.0000 C   0  0  0  0  0  0  0  0  0  0  0  0
   -1.6015    0.1587    0.0000 C   0  0  0  0  0  0  0  0  0  0  0  0
   -1.0873    1.5678    0.0000 C   0  0  0  0  0  0  0  0  0  0  0  0
    1.8023   -1.8819    0.0000 C   0  0  0  0  0  0  0  0  0  0  0  0
    2.8308    0.9362    0.0000 C   0  0  0  0  0  0  0  0  0  0  0  0
    3.2797   -1.6228    0.0000 C   0  0  0  0  0  0  0  0  0  0  0  0
    3.7940   -0.2137    0.0000 C   0  0  0  0  0  0  0  0  0  0  0  0
   -3.0789   -0.1005    0.0000 C   0  0  0  0  0  0  0  0  0  0  0  0
  1  7  1  0
  2  8  1  0
  3 15  1  0
  4 15  2  0
  5  6  1  0
  5  7  2  0
  5 11  1  0
  6  8  2  0
  6 12  1  0
  7  9  1  0
  8 10  1  0
  9 10  2  0
  9 15  1  0
 11 13  2  0
 12 14  2  0
 13 14  1  0
M  END
>  <PUBCHEM_COMPOUND_CID>  (1) 
671

>  <PUBCHEM_COMPOUND_CANONICALIZED>  (1) 
1

>  <PUBCHEM_CACTVS_COMPLEXITY>  (1) 
253

>  <PUBCHEM_CACTVS_HBOND_ACCEPTOR>  (1) 
4

>  <PUBCHEM_CACTVS_HBOND_DONOR>  (1) 
3

>  <PUBCHEM_CACTVS_ROTATABLE_BOND>  (1) 
1

>  <PUBCHEM_CACTVS_SUBSKEYS>  (1) 
AAADccBwOAAAAAAAAAAAAAAAAAAAAAAAAAAwYAAAAAAAAADBUAAAGgAACAAADASAmAAwDsAAAgCIAiDSCAACAAAkIAAIiAEGCMgIJzaCFRKAcUAl4BEImYfKyPCOwQADAAAYAACCAAYAADAAAAAAAAAAAA==

>  <PUBCHEM_IUPAC_OPENEYE_NAME>  (1) 
1,4-dihydroxynaphthalene-2-carboxylic acid

>  <PUBCHEM_IUPAC_CAS_NAME>  (1) 
1,4-dihydroxy-2-naphthalenecarboxylic acid

>  <PUBCHEM_IUPAC_NAME_MARKUP>  (1) 
1,4-dihydroxynaphthalene-2-carboxylic acid

>  <PUBCHEM_IUPAC_NAME>  (1) 
1,4-dihydroxynaphthalene-2-carboxylic acid

>  <PUBCHEM_IUPAC_SYSTEMATIC_NAME>  (1) 
1,4-bis(oxidanyl)naphthalene-2-carboxylic acid

>  <PUBCHEM_IUPAC_TRADITIONAL_NAME>  (1) 
1,4-dihydroxy-2-naphthoic acid

>  <PUBCHEM_IUPAC_INCHI>  (1) 
InChI=1S/C11H8O4/c12-9-5-8(11(14)15)10(13)7-4-2-1-3-6(7)9/h1-5,12-13H,(H,14,15)

>  <PUBCHEM_IUPAC_INCHIKEY>  (1) 
VOJUXHHACRXLTD-UHFFFAOYSA-N

>  <PUBCHEM_XLOGP3_AA>  (1) 
2.5

>  <PUBCHEM_EXACT_MASS>  (1) 
204.042259

>  <PUBCHEM_MOLECULAR_FORMULA>  (1) 
C11H8O4

>  <PUBCHEM_MOLECULAR_WEIGHT>  (1) 
204.18

>  <PUBCHEM_OPENEYE_CAN_SMILES>  (1) 
C1=CC=C2C(=C1)C(=CC(=C2O)C(=O)O)O

>  <PUBCHEM_OPENEYE_ISO_SMILES>  (1) 
C1=CC=C2C(=C1)C(=CC(=C2O)C(=O)O)O

>  <PUBCHEM_CACTVS_TPSA>  (1) 
77.8

>  <PUBCHEM_MONOISOTOPIC_WEIGHT>  (1) 
204.042259

>  <PUBCHEM_TOTAL_CHARGE>  (1) 
0

>  <PUBCHEM_HEAVY_ATOM_COUNT>  (1) 
15

>  <PUBCHEM_ATOM_DEF_STEREO_COUNT>  (1) 
0

>  <PUBCHEM_ATOM_UDEF_STEREO_COUNT>  (1) 
0

>  <PUBCHEM_BOND_DEF_STEREO_COUNT>  (1) 
0

>  <PUBCHEM_BOND_UDEF_STEREO_COUNT>  (1) 
0

>  <PUBCHEM_ISOTOPIC_ATOM_COUNT>  (1) 
0

>  <PUBCHEM_COMPONENT_COUNT>  (1) 
1

>  <PUBCHEM_CACTVS_TAUTO_COUNT>  (1) 
-1

>  <PUBCHEM_COORDINATE_TYPE>  (1) 
1
5
255

>  <PUBCHEM_BONDANNOTATIONS>  (1) 
11  13  8
12  14  8
13  14  8
5  11  8
5  6  8
5  7  8
6  12  8
6  8  8
7  9  8
8  10  8
9  10  8

$$$$
