674
     RDKit          2D

  3  2  0  0  0  0  0  0  0  0999 V2000
    0.0000    0.5000    0.0000 N   0  0  0  0  0  0  0  0  0  0  0  0
   -1.2990   -0.2500    0.0000 C   0  0  0  0  0  0  0  0  0  0  0  0
    1.2990   -0.2500    0.0000 C   0  0  0  0  0  0  0  0  0  0  0  0
  1  2  1  0
  1  3  1  0
M  END
>  <PUBCHEM_COMPOUND_CID>  (1) 
674

>  <PUBCHEM_COMPOUND_CANONICALIZED>  (1) 
1

>  <PUBCHEM_CACTVS_COMPLEXITY>  (1) 
2.8

>  <PUBCHEM_CACTVS_HBOND_ACCEPTOR>  (1) 
1

>  <PUBCHEM_CACTVS_HBOND_DONOR>  (1) 
1

>  <PUBCHEM_CACTVS_ROTATABLE_BOND>  (1) 
0

>  <PUBCHEM_CACTVS_SUBSKEYS>  (1) 
AAADcYBCAAAAAAAAAAAAAAAAAAAAAAAAAAAAAAAAAAAAAAAAAAAAFAAQAAAAAAAAAAQCAALAAAAAAAAAAAAAAAAAAAAAAIAIAAAAAAAAAAAAAAAAAAAAAAAAAAAAAAAAAAAAAAAAAAAAAAAAAAAAAAAAAA==

>  <PUBCHEM_IUPAC_OPENEYE_NAME>  (1) 
N-methylmethanamine

>  <PUBCHEM_IUPAC_CAS_NAME>  (1) 
N-methylmethanamine

>  <PUBCHEM_IUPAC_NAME_MARKUP>  (1) 
<I>N</I>-methylmethanamine

>  <PUBCHEM_IUPAC_NAME>  (1) 
N-methylmethanamine

>  <PUBCHEM_IUPAC_SYSTEMATIC_NAME>  (1) 
N-methylmethanamine

>  <PUBCHEM_IUPAC_TRADITIONAL_NAME>  (1) 
dimethylamine

>  <PUBCHEM_IUPAC_INCHI>  (1) 
InChI=1S/C2H7N/c1-3-2/h3H,1-2H3

>  <PUBCHEM_IUPAC_INCHIKEY>  (1) 
ROSDSFDQCJNGOL-UHFFFAOYSA-N

>  <PUBCHEM_XLOGP3_AA>  (1) 
-0.2

>  <PUBCHEM_EXACT_MASS>  (1) 
45.057849

>  <PUBCHEM_MOLECULAR_FORMULA>  (1) 
C2H7N

>  <PUBCHEM_MOLECULAR_WEIGHT>  (1) 
45.08

>  <PUBCHEM_OPENEYE_CAN_SMILES>  (1) 
CNC

>  <PUBCHEM_OPENEYE_ISO_SMILES>  (1) 
CNC

>  <PUBCHEM_CACTVS_TPSA>  (1) 
12

>  <PUBCHEM_MONOISOTOPIC_WEIGHT>  (1) 
45.057849

>  <PUBCHEM_TOTAL_CHARGE>  (1) 
0

>  <PUBCHEM_HEAVY_ATOM_COUNT>  (1) 
3

>  <PUBCHEM_ATOM_DEF_STEREO_COUNT>  (1) 
0

>  <PUBCHEM_ATOM_UDEF_STEREO_COUNT>  (1) 
0

>  <PUBCHEM_BOND_DEF_STEREO_COUNT>  (1) 
0

>  <PUBCHEM_BOND_UDEF_STEREO_COUNT>  (1) 
0

>  <PUBCHEM_ISOTOPIC_ATOM_COUNT>  (1) 
0

>  <PUBCHEM_COMPONENT_COUNT>  (1) 
1

>  <PUBCHEM_CACTVS_TAUTO_COUNT>  (1) 
-1

>  <PUBCHEM_COORDINATE_TYPE>  (1) 
1
5
255

$$$$
