68
     RDKit          2D

 16 16  0  0  1  0  0  0  0  0999 V2000
    0.8234   -1.5940    0.0000 P   0  0  0  0  0  0  0  0  0  0  0  0
    2.2822    0.7627    0.0000 P   0  0  0  0  0  0  0  0  0  0  0  0
   -0.6571   -1.3527    0.0000 O   0  0  0  0  0  0  0  0  0  0  0  0
    1.4060    1.9802    0.0000 O   0  0  0  0  0  0  0  0  0  0  0  0
   -2.5673    2.1348    0.0000 O   0  0  0  0  0  0  0  0  0  0  0  0
    2.0409   -0.7178    0.0000 O   0  0  0  0  0  0  0  0  0  0  0  0
   -4.1183   -0.3951    0.0000 O   0  0  0  0  0  0  0  0  0  0  0  0
    0.2071   -2.9615    0.0000 O   0  0  0  0  0  0  0  0  0  0  0  0
    1.9848   -2.5432    0.0000 O   0  0  0  0  0  0  0  0  0  0  0  0
    3.6498    0.1464    0.0000 O   0  0  0  0  0  0  0  0  0  0  0  0
    3.2314    1.9241    0.0000 O   0  0  0  0  0  0  0  0  0  0  0  0
   -1.5333   -0.1352    0.0000 C   0  0  0  0  0  0  0  0  0  0  0  0
   -1.2919    1.3453    0.0000 C   0  0  0  0  0  0  0  0  0  0  0  0
   -2.9008    0.4811    0.0000 C   0  0  0  0  0  0  0  0  0  0  0  0
   -0.0744    2.2215    0.0000 C   0  0  0  0  0  0  0  0  0  0  0  0
   -2.4825   -1.2966    0.0000 C   0  0  0  0  0  0  0  0  0  0  0  0
  1  3  1  0
  1  6  1  0
  1  8  1  0
  1  9  2  0
  2  4  1  0
  2  6  1  0
  2 10  1  0
  2 11  2  0
  3 12  1  0
  4 15  1  0
  5 13  1  0
  7 14  1  0
 12 13  1  0
 12 14  1  0
 12 16  1  0
 13 15  1  0
M  END
>  <PUBCHEM_COMPOUND_CID>  (1) 
68

>  <PUBCHEM_COMPOUND_CANONICALIZED>  (1) 
1

>  <PUBCHEM_CACTVS_COMPLEXITY>  (1) 
356

>  <PUBCHEM_CACTVS_HBOND_ACCEPTOR>  (1) 
9

>  <PUBCHEM_CACTVS_HBOND_DONOR>  (1) 
4

>  <PUBCHEM_CACTVS_ROTATABLE_BOND>  (1) 
1

>  <PUBCHEM_CACTVS_SUBSKEYS>  (1) 
AAADccBgPAMAAAAAAAAAAAAAAAAAAAAAAAAAAAAAAAASAAAAAAAAGgAACCAADFSggAICAAAAAxAAQAAAAIAAAAAAAAAAAAAAAAABEAAAAAAAQAAFAAABAABAAAAIAAAAAAAAAAAAAAAAAAAAAAAAAAAAAA==

>  <PUBCHEM_IUPAC_OPENEYE_NAME>  (1) 
2,4-dihydroxy-6-(hydroxymethyl)-6-methyl-2,4-dioxo-1,3,5,2lambda5,4lambda5-trioxadiphosphocan-7-ol

>  <PUBCHEM_IUPAC_CAS_NAME>  (1) 
2,4-dihydroxy-6-(hydroxymethyl)-6-methyl-2,4-dioxo-1,3,5,2lambda5,4lambda5-trioxadiphosphocan-7-ol

>  <PUBCHEM_IUPAC_NAME_MARKUP>  (1) 
2,4-dihydroxy-6-(hydroxymethyl)-6-methyl-2,4-dioxo-1,3,5,2&lambda;<SUP>5</SUP>,4&lambda;<SUP>5</SUP>-trioxadiphosphocan-7-ol

>  <PUBCHEM_IUPAC_NAME>  (1) 
2,4-dihydroxy-6-(hydroxymethyl)-6-methyl-2,4-dioxo-1,3,5,2lambda5,4lambda5-trioxadiphosphocan-7-ol

>  <PUBCHEM_IUPAC_SYSTEMATIC_NAME>  (1) 
6-(hydroxymethyl)-6-methyl-2,4-bis(oxidanyl)-2,4-bis(oxidanylidene)-1,3,5,2lambda5,4lambda5-trioxadiphosphocan-7-ol

>  <PUBCHEM_IUPAC_TRADITIONAL_NAME>  (1) 
2,4-dihydroxy-2,4-diketo-6-methyl-6-methylol-1,3,5,2lambda5,4lambda5-trioxadiphosphocan-7-ol

>  <PUBCHEM_IUPAC_INCHI>  (1) 
InChI=1S/C5H12O9P2/c1-5(3-6)4(7)2-12-15(8,9)14-16(10,11)13-5/h4,6-7H,2-3H2,1H3,(H,8,9)(H,10,11)

>  <PUBCHEM_IUPAC_INCHIKEY>  (1) 
SFRQRNJMIIUYDI-UHFFFAOYSA-N

>  <PUBCHEM_XLOGP3_AA>  (1) 
-2.8

>  <PUBCHEM_EXACT_MASS>  (1) 
277.995656

>  <PUBCHEM_MOLECULAR_FORMULA>  (1) 
C5H12O9P2

>  <PUBCHEM_MOLECULAR_WEIGHT>  (1) 
278.09

>  <PUBCHEM_OPENEYE_CAN_SMILES>  (1) 
CC1(C(COP(=O)(OP(=O)(O1)O)O)O)CO

>  <PUBCHEM_OPENEYE_ISO_SMILES>  (1) 
CC1(C(COP(=O)(OP(=O)(O1)O)O)O)CO

>  <PUBCHEM_CACTVS_TPSA>  (1) 
143

>  <PUBCHEM_MONOISOTOPIC_WEIGHT>  (1) 
277.995656

>  <PUBCHEM_TOTAL_CHARGE>  (1) 
0

>  <PUBCHEM_HEAVY_ATOM_COUNT>  (1) 
16

>  <PUBCHEM_ATOM_DEF_STEREO_COUNT>  (1) 
0

>  <PUBCHEM_ATOM_UDEF_STEREO_COUNT>  (1) 
2

>  <PUBCHEM_BOND_DEF_STEREO_COUNT>  (1) 
0

>  <PUBCHEM_BOND_UDEF_STEREO_COUNT>  (1) 
0

>  <PUBCHEM_ISOTOPIC_ATOM_COUNT>  (1) 
0

>  <PUBCHEM_COMPONENT_COUNT>  (1) 
1

>  <PUBCHEM_CACTVS_TAUTO_COUNT>  (1) 
-1

>  <PUBCHEM_COORDINATE_TYPE>  (1) 
1
5
255

>  <PUBCHEM_BONDANNOTATIONS>  (1) 
12  16  3
13  5  3

$$$$
