683
     RDKit          2D

 15 14  0  0  1  0  0  0  0  0999 V2000
    3.6310    0.5442    0.0000 P   0  0  0  0  0  0  0  0  0  0  0  0
   -3.2350    0.8747    0.0000 P   0  0  0  0  0  0  0  0  0  0  0  0
    2.5956   -0.5412    0.0000 O   0  0  0  0  0  0  0  0  0  0  0  0
    0.5249   -2.7119    0.0000 O   0  0  0  0  0  0  0  0  0  0  0  0
   -1.7773    0.5207    0.0000 O   0  0  0  0  0  0  0  0  0  0  0  0
   -2.3904   -2.0040    0.0000 O   0  0  0  0  0  0  0  0  0  0  0  0
    2.5456    1.5796    0.0000 O   0  0  0  0  0  0  0  0  0  0  0  0
    4.6663    1.6296    0.0000 O   0  0  0  0  0  0  0  0  0  0  0  0
   -3.5889   -0.5830    0.0000 O   0  0  0  0  0  0  0  0  0  0  0  0
   -4.6926    1.2286    0.0000 O   0  0  0  0  0  0  0  0  0  0  0  0
    4.7163   -0.4912    0.0000 O   0  0  0  0  0  0  0  0  0  0  0  0
   -2.8810    2.3323    0.0000 O   0  0  0  0  0  0  0  0  0  0  0  0
    0.1026   -1.2726    0.0000 C   0  0  0  0  0  0  0  0  0  0  0  0
    1.1380   -0.1872    0.0000 C   0  0  0  0  0  0  0  0  0  0  0  0
   -1.3550   -0.9186    0.0000 C   0  0  0  0  0  0  0  0  0  0  0  0
  1  3  1  0
  1  7  1  0
  1  8  1  0
  1 11  2  0
  2  5  1  0
  2  9  1  0
  2 10  1  0
  2 12  2  0
  3 14  1  0
  4 13  1  0
  5 15  1  0
  6 15  2  0
 13 14  1  0
 13 15  1  0
M  END
>  <PUBCHEM_COMPOUND_CID>  (1) 
683

>  <PUBCHEM_COMPOUND_CANONICALIZED>  (1) 
1

>  <PUBCHEM_CACTVS_COMPLEXITY>  (1) 
311

>  <PUBCHEM_CACTVS_HBOND_ACCEPTOR>  (1) 
10

>  <PUBCHEM_CACTVS_HBOND_DONOR>  (1) 
5

>  <PUBCHEM_CACTVS_ROTATABLE_BOND>  (1) 
6

>  <PUBCHEM_CACTVS_SUBSKEYS>  (1) 
AAADccBAPAMAAAAAAAAAAAAAAAAAAAAAAAAAAAAAAAAAAAAAAAAAGgAACCAACBSggAIACAAAAxAIQACQCIIAAAAAAAAAAAFAAAABEAQAAAAAAAABIAABAAAAAAAAAAAAAAAAAAAAAAAAAAAAAAAAAAAAAA==

>  <PUBCHEM_IUPAC_OPENEYE_NAME>  (1) 
phosphono 2-hydroxy-3-phosphonooxy-propanoate

>  <PUBCHEM_IUPAC_CAS_NAME>  (1) 
2-hydroxy-3-phosphonooxypropanoic acid phosphono ester

>  <PUBCHEM_IUPAC_NAME_MARKUP>  (1) 
phosphono 2-hydroxy-3-phosphonooxypropanoate

>  <PUBCHEM_IUPAC_NAME>  (1) 
phosphono 2-hydroxy-3-phosphonooxypropanoate

>  <PUBCHEM_IUPAC_SYSTEMATIC_NAME>  (1) 
phosphono 2-oxidanyl-3-phosphonooxy-propanoate

>  <PUBCHEM_IUPAC_TRADITIONAL_NAME>  (1) 
2-hydroxy-3-phosphonooxy-propionic acid phosphono ester

>  <PUBCHEM_IUPAC_INCHI>  (1) 
InChI=1S/C3H8O10P2/c4-2(1-12-14(6,7)8)3(5)13-15(9,10)11/h2,4H,1H2,(H2,6,7,8)(H2,9,10,11)

>  <PUBCHEM_IUPAC_INCHIKEY>  (1) 
LJQLQCAXBUHEAZ-UHFFFAOYSA-N

>  <PUBCHEM_XLOGP3_AA>  (1) 
-3.9

>  <PUBCHEM_EXACT_MASS>  (1) 
265.95927

>  <PUBCHEM_MOLECULAR_FORMULA>  (1) 
C3H8O10P2

>  <PUBCHEM_MOLECULAR_WEIGHT>  (1) 
266.04

>  <PUBCHEM_OPENEYE_CAN_SMILES>  (1) 
C(C(C(=O)OP(=O)(O)O)O)OP(=O)(O)O

>  <PUBCHEM_OPENEYE_ISO_SMILES>  (1) 
C(C(C(=O)OP(=O)(O)O)O)OP(=O)(O)O

>  <PUBCHEM_CACTVS_TPSA>  (1) 
171

>  <PUBCHEM_MONOISOTOPIC_WEIGHT>  (1) 
265.95927

>  <PUBCHEM_TOTAL_CHARGE>  (1) 
0

>  <PUBCHEM_HEAVY_ATOM_COUNT>  (1) 
15

>  <PUBCHEM_ATOM_DEF_STEREO_COUNT>  (1) 
0

>  <PUBCHEM_ATOM_UDEF_STEREO_COUNT>  (1) 
1

>  <PUBCHEM_BOND_DEF_STEREO_COUNT>  (1) 
0

>  <PUBCHEM_BOND_UDEF_STEREO_COUNT>  (1) 
0

>  <PUBCHEM_ISOTOPIC_ATOM_COUNT>  (1) 
0

>  <PUBCHEM_COMPONENT_COUNT>  (1) 
1

>  <PUBCHEM_CACTVS_TAUTO_COUNT>  (1) 
-1

>  <PUBCHEM_COORDINATE_TYPE>  (1) 
1
5
255

>  <PUBCHEM_BONDANNOTATIONS>  (1) 
13  4  3

$$$$
