685
     RDKit          2D

 35 37  0  0  1  0  0  0  0  0999 V2000
   -2.3707   -3.0926    0.0000 P   0  0  0  0  0  0  0  0  0  0  0  0
   -4.6517   -1.8489    0.0000 P   0  0  0  0  0  0  0  0  0  0  0  0
    2.1982   -0.4676    0.0000 O   0  0  0  0  0  0  0  0  0  0  0  0
    1.8290   -4.3314    0.0000 O   0  0  0  0  0  0  0  0  0  0  0  0
   -0.8711   -3.0559    0.0000 O   0  0  0  0  0  0  0  0  0  0  0  0
   -3.2157    0.7850    0.0000 O   0  0  0  0  0  0  0  0  0  0  0  0
   -5.4332   -0.5686    0.0000 O   0  0  0  0  0  0  0  0  0  0  0  0
   -6.9963    1.9921    0.0000 O   0  0  0  0  0  0  0  0  0  0  0  0
   -3.8702   -3.1292    0.0000 O   0  0  0  0  0  0  0  0  0  0  0  0
   -5.5602    4.6260    0.0000 O   0  0  0  0  0  0  0  0  0  0  0  0
    6.4054   -2.0490    0.0000 O   0  0  0  0  0  0  0  0  0  0  0  0
   -2.5611    4.6993    0.0000 O   0  0  0  0  0  0  0  0  0  0  0  0
   -2.4073   -1.5930    0.0000 O   0  0  0  0  0  0  0  0  0  0  0  0
   -2.3340   -4.5921    0.0000 O   0  0  0  0  0  0  0  0  0  0  0  0
   -5.9321   -2.6304    0.0000 O   0  0  0  0  0  0  0  0  0  0  0  0
    8.4022    2.7481    0.0000 O   0  0  0  0  0  0  0  0  0  0  0  0
   -3.3714   -1.0674    0.0000 O   0  0  0  0  0  0  0  0  0  0  0  0
    4.8274    0.0149    0.0000 N   0  0  0  0  0  0  0  0  0  0  0  0
    7.4038    0.3495    0.0000 N   0  0  0  0  0  0  0  0  0  0  0  0
    2.2575   -2.8939    0.0000 C   0  0  0  0  0  0  0  0  0  0  0  0
    1.3465   -1.7023    0.0000 C   0  0  0  0  0  0  0  0  0  0  0  0
    3.6724   -2.3957    0.0000 C   0  0  0  0  0  0  0  0  0  0  0  0
    3.6357   -0.8961    0.0000 C   0  0  0  0  0  0  0  0  0  0  0  0
   -0.1531   -1.7390    0.0000 C   0  0  0  0  0  0  0  0  0  0  0  0
   -5.4967    2.0287    0.0000 C   0  0  0  0  0  0  0  0  0  0  0  0
   -4.7152    0.7484    0.0000 C   0  0  0  0  0  0  0  0  0  0  0  0
   -4.7787    3.3457    0.0000 C   0  0  0  0  0  0  0  0  0  0  0  0
    4.6342    1.5024    0.0000 C   0  0  0  0  0  0  0  0  0  0  0  0
    6.2122   -0.5615    0.0000 C   0  0  0  0  0  0  0  0  0  0  0  0
   -2.4976    2.1020    0.0000 C   0  0  0  0  0  0  0  0  0  0  0  0
   -3.2791    3.3824    0.0000 C   0  0  0  0  0  0  0  0  0  0  0  0
    5.8258    2.4135    0.0000 C   0  0  0  0  0  0  0  0  0  0  0  0
   -0.9981    2.1387    0.0000 C   0  0  0  0  0  0  0  0  0  0  0  0
    7.2106    1.8370    0.0000 C   0  0  0  0  0  0  0  0  0  0  0  0
    5.6326    3.9010    0.0000 C   0  0  0  0  0  0  0  0  0  0  0  0
  1  5  1  0
  1  9  1  0
  1 13  1  0
  1 14  2  0
  2  7  1  0
  2  9  1  0
  2 15  1  0
  2 17  2  0
  3 21  1  0
  3 23  1  0
  4 20  1  0
  5 24  1  0
  6 26  1  0
  6 30  1  0
  7 26  1  0
  8 25  1  0
 10 27  1  0
 11 29  2  0
 12 31  2  0
 16 34  2  0
 18 23  1  0
 18 28  1  0
 18 29  1  0
 19 29  1  0
 19 34  1  0
 20 21  1  0
 20 22  1  0
 21 24  1  0
 22 23  1  0
 25 26  1  0
 25 27  1  0
 27 31  1  0
 28 32  2  0
 30 31  1  0
 30 33  1  0
 32 34  1  0
 32 35  1  0
M  END
>  <PUBCHEM_COMPOUND_CID>  (1) 
685

>  <PUBCHEM_COMPOUND_CANONICALIZED>  (1) 
1

>  <PUBCHEM_CACTVS_COMPLEXITY>  (1) 
1000

>  <PUBCHEM_CACTVS_HBOND_ACCEPTOR>  (1) 
15

>  <PUBCHEM_CACTVS_HBOND_DONOR>  (1) 
6

>  <PUBCHEM_CACTVS_ROTATABLE_BOND>  (1) 
8

>  <PUBCHEM_CACTVS_SUBSKEYS>  (1) 
AAADceB7PAMAAAAAAAAAAAAAAAAAASAAAAAkQAAAAAAAAAAAAAAAHgAQCCAADBTxgAcDCAPABxCIQoFWUIKAAAAAAAAAAAFIAECREBYAgQQOQAAPJyIHAMHycAYAAAAAAAAAAAAAAAAAAAAAAAAAAAAAAA==

>  <PUBCHEM_IUPAC_OPENEYE_NAME>  (1) 
(3,4-dihydroxy-6-methyl-5-oxo-tetrahydropyran-2-yl) [hydroxy-[[3-hydroxy-5-(5-methyl-2,4-dioxo-pyrimidin-1-yl)tetrahydrofuran-2-yl]methoxy]phosphoryl] hydrogen phosphate

>  <PUBCHEM_IUPAC_CAS_NAME>  (1) 
(3,4-dihydroxy-6-methyl-5-oxo-2-oxanyl) [hydroxy-[[3-hydroxy-5-(5-methyl-2,4-dioxo-1-pyrimidinyl)-2-oxolanyl]methoxy]phosphoryl] hydrogen phosphate

>  <PUBCHEM_IUPAC_NAME_MARKUP>  (1) 
(3,4-dihydroxy-6-methyl-5-oxooxan-2-yl) [hydroxy-[[3-hydroxy-5-(5-methyl-2,4-dioxopyrimidin-1-yl)oxolan-2-yl]methoxy]phosphoryl] hydrogen phosphate

>  <PUBCHEM_IUPAC_NAME>  (1) 
(3,4-dihydroxy-6-methyl-5-oxooxan-2-yl) [hydroxy-[[3-hydroxy-5-(5-methyl-2,4-dioxopyrimidin-1-yl)oxolan-2-yl]methoxy]phosphoryl] hydrogen phosphate

>  <PUBCHEM_IUPAC_SYSTEMATIC_NAME>  (1) 
[[5-[5-methyl-2,4-bis(oxidanylidene)pyrimidin-1-yl]-3-oxidanyl-oxolan-2-yl]methoxy-oxidanyl-phosphoryl] [6-methyl-3,4-bis(oxidanyl)-5-oxidanylidene-oxan-2-yl] hydrogen phosphate

>  <PUBCHEM_IUPAC_TRADITIONAL_NAME>  (1) 
(3,4-dihydroxy-5-keto-6-methyl-tetrahydropyran-2-yl) [[5-(2,4-diketo-5-methyl-pyrimidin-1-yl)-3-hydroxy-tetrahydrofuran-2-yl]methoxy-hydroxy-phosphoryl] hydrogen phosphate

>  <PUBCHEM_IUPAC_INCHI>  (1) 
InChI=1S/C16H24N2O15P2/c1-6-4-18(16(24)17-14(6)23)10-3-8(19)9(31-10)5-29-34(25,26)33-35(27,28)32-15-13(22)12(21)11(20)7(2)30-15/h4,7-10,12-13,15,19,21-22H,3,5H2,1-2H3,(H,25,26)(H,27,28)(H,17,23,24)

>  <PUBCHEM_IUPAC_INCHIKEY>  (1) 
PSXWNITXWWECNY-UHFFFAOYSA-N

>  <PUBCHEM_XLOGP3_AA>  (1) 
-4.4

>  <PUBCHEM_EXACT_MASS>  (1) 
546.065192

>  <PUBCHEM_MOLECULAR_FORMULA>  (1) 
C16H24N2O15P2

>  <PUBCHEM_MOLECULAR_WEIGHT>  (1) 
546.31

>  <PUBCHEM_OPENEYE_CAN_SMILES>  (1) 
CC1C(=O)C(C(C(O1)OP(=O)(O)OP(=O)(O)OCC2C(CC(O2)N3C=C(C(=O)NC3=O)C)O)O)O

>  <PUBCHEM_OPENEYE_ISO_SMILES>  (1) 
CC1C(=O)C(C(C(O1)OP(=O)(O)OP(=O)(O)OCC2C(CC(O2)N3C=C(C(=O)NC3=O)C)O)O)O

>  <PUBCHEM_CACTVS_TPSA>  (1) 
248

>  <PUBCHEM_MONOISOTOPIC_WEIGHT>  (1) 
546.065192

>  <PUBCHEM_TOTAL_CHARGE>  (1) 
0

>  <PUBCHEM_HEAVY_ATOM_COUNT>  (1) 
35

>  <PUBCHEM_ATOM_DEF_STEREO_COUNT>  (1) 
0

>  <PUBCHEM_ATOM_UDEF_STEREO_COUNT>  (1) 
7

>  <PUBCHEM_BOND_DEF_STEREO_COUNT>  (1) 
0

>  <PUBCHEM_BOND_UDEF_STEREO_COUNT>  (1) 
0

>  <PUBCHEM_ISOTOPIC_ATOM_COUNT>  (1) 
0

>  <PUBCHEM_COMPONENT_COUNT>  (1) 
1

>  <PUBCHEM_CACTVS_TAUTO_COUNT>  (1) 
-1

>  <PUBCHEM_COORDINATE_TYPE>  (1) 
1
5
255

>  <PUBCHEM_BONDANNOTATIONS>  (1) 
27  10  3
23  18  3
18  28  8
18  29  8
19  29  8
19  34  8
21  24  3
28  32  8
30  33  3
32  34  8
20  4  3
26  7  3
25  8  3

$$$$
