69
     RDKit          2D

 11 10  0  0  0  0  0  0  0  0999 V2000
   -1.6269   -1.8430    0.0000 O   0  0  0  0  0  0  0  0  0  0  0  0
    3.5521   -1.4203    0.0000 O   0  0  0  0  0  0  0  0  0  0  0  0
   -4.3384   -0.5594    0.0000 O   0  0  0  0  0  0  0  0  0  0  0  0
   -3.2267    1.7889    0.0000 O   0  0  0  0  0  0  0  0  0  0  0  0
    0.8406   -0.1366    0.0000 C   0  0  0  0  0  0  0  0  0  0  0  0
    2.0743    0.7166    0.0000 C   0  0  0  0  0  0  0  0  0  0  0  0
   -0.5152    0.5052    0.0000 C   0  0  0  0  0  0  0  0  0  0  0  0
    3.4300    0.0748    0.0000 C   0  0  0  0  0  0  0  0  0  0  0  0
   -1.7489   -0.3480    0.0000 C   0  0  0  0  0  0  0  0  0  0  0  0
    4.6637    0.9280    0.0000 C   0  0  0  0  0  0  0  0  0  0  0  0
   -3.1047    0.2938    0.0000 C   0  0  0  0  0  0  0  0  0  0  0  0
  1  9  1  0
  2  8  2  0
  3 11  1  0
  4 11  2  0
  5  6  2  3
  5  7  1  0
  6  8  1  0
  7  9  2  3
  8 10  1  0
  9 11  1  0
M  END
>  <PUBCHEM_COMPOUND_CID>  (1) 
69

>  <PUBCHEM_COMPOUND_CANONICALIZED>  (1) 
1

>  <PUBCHEM_CACTVS_COMPLEXITY>  (1) 
225

>  <PUBCHEM_CACTVS_HBOND_ACCEPTOR>  (1) 
4

>  <PUBCHEM_CACTVS_HBOND_DONOR>  (1) 
2

>  <PUBCHEM_CACTVS_ROTATABLE_BOND>  (1) 
3

>  <PUBCHEM_CACTVS_SUBSKEYS>  (1) 
AAADccBgOAAAAAAAAAAAAAAAAAAAAAAAAAAAAAAAAAAAAAAAAAAAGgAACAAACASAgAACCAAAAgCIAKDSCAIAAAAgIAAICABAAEgJBAAAAQAAEAAAAAAJkYIAAAAAAAAAAAAAAAAAAAAAAAAAAAAAAAAAAA==

>  <PUBCHEM_IUPAC_OPENEYE_NAME>  (1) 
2-hydroxy-6-oxo-hepta-2,4-dienoic acid

>  <PUBCHEM_IUPAC_CAS_NAME>  (1) 
2-hydroxy-6-oxohepta-2,4-dienoic acid

>  <PUBCHEM_IUPAC_NAME_MARKUP>  (1) 
2-hydroxy-6-oxohepta-2,4-dienoic acid

>  <PUBCHEM_IUPAC_NAME>  (1) 
2-hydroxy-6-oxohepta-2,4-dienoic acid

>  <PUBCHEM_IUPAC_SYSTEMATIC_NAME>  (1) 
2-oxidanyl-6-oxidanylidene-hepta-2,4-dienoic acid

>  <PUBCHEM_IUPAC_TRADITIONAL_NAME>  (1) 
2-hydroxy-6-keto-hepta-2,4-dienoic acid

>  <PUBCHEM_IUPAC_INCHI>  (1) 
InChI=1S/C7H8O4/c1-5(8)3-2-4-6(9)7(10)11/h2-4,9H,1H3,(H,10,11)

>  <PUBCHEM_IUPAC_INCHIKEY>  (1) 
HVZGWILTESYJSP-UHFFFAOYSA-N

>  <PUBCHEM_XLOGP3_AA>  (1) 
0.2

>  <PUBCHEM_EXACT_MASS>  (1) 
156.042259

>  <PUBCHEM_MOLECULAR_FORMULA>  (1) 
C7H8O4

>  <PUBCHEM_MOLECULAR_WEIGHT>  (1) 
156.14

>  <PUBCHEM_OPENEYE_CAN_SMILES>  (1) 
CC(=O)C=CC=C(C(=O)O)O

>  <PUBCHEM_OPENEYE_ISO_SMILES>  (1) 
CC(=O)C=CC=C(C(=O)O)O

>  <PUBCHEM_CACTVS_TPSA>  (1) 
74.6

>  <PUBCHEM_MONOISOTOPIC_WEIGHT>  (1) 
156.042259

>  <PUBCHEM_TOTAL_CHARGE>  (1) 
0

>  <PUBCHEM_HEAVY_ATOM_COUNT>  (1) 
11

>  <PUBCHEM_ATOM_DEF_STEREO_COUNT>  (1) 
0

>  <PUBCHEM_ATOM_UDEF_STEREO_COUNT>  (1) 
0

>  <PUBCHEM_BOND_DEF_STEREO_COUNT>  (1) 
0

>  <PUBCHEM_BOND_UDEF_STEREO_COUNT>  (1) 
2

>  <PUBCHEM_ISOTOPIC_ATOM_COUNT>  (1) 
0

>  <PUBCHEM_COMPONENT_COUNT>  (1) 
1

>  <PUBCHEM_CACTVS_TAUTO_COUNT>  (1) 
-1

>  <PUBCHEM_COORDINATE_TYPE>  (1) 
1
5
255

>  <PUBCHEM_BONDANNOTATIONS>  (1) 
5  6  1
7  9  1

$$$$
