691
     RDKit          2D

 12 12  0  0  0  0  0  0  0  0999 V2000
   -1.2391    1.6805    0.0000 O   0  0  0  0  0  0  0  0  0  0  0  0
   -4.1321    0.8862    0.0000 O   0  0  0  0  0  0  0  0  0  0  0  0
   -3.4442   -1.6191    0.0000 O   0  0  0  0  0  0  0  0  0  0  0  0
    0.8952   -0.4278    0.0000 C   0  0  0  0  0  0  0  0  0  0  0  0
    1.2745    1.0235    0.0000 C   0  0  0  0  0  0  0  0  0  0  0  0
    1.9624   -1.4819    0.0000 C   0  0  0  0  0  0  0  0  0  0  0  0
   -0.5513   -0.8249    0.0000 C   0  0  0  0  0  0  0  0  0  0  0  0
    2.7210    1.4206    0.0000 C   0  0  0  0  0  0  0  0  0  0  0  0
    3.4088   -1.0848    0.0000 C   0  0  0  0  0  0  0  0  0  0  0  0
    3.7882    0.3665    0.0000 C   0  0  0  0  0  0  0  0  0  0  0  0
   -1.6184    0.2292    0.0000 C   0  0  0  0  0  0  0  0  0  0  0  0
   -3.0649   -0.1679    0.0000 C   0  0  0  0  0  0  0  0  0  0  0  0
  1 11  1  0
  2 12  1  0
  3 12  2  0
  4  5  2  0
  4  6  1  0
  4  7  1  0
  5  8  1  0
  6  9  2  0
  7 11  2  3
  8 10  2  0
  9 10  1  0
 11 12  1  0
M  END
>  <PUBCHEM_COMPOUND_CID>  (1) 
691

>  <PUBCHEM_COMPOUND_CANONICALIZED>  (1) 
1

>  <PUBCHEM_CACTVS_COMPLEXITY>  (1) 
190

>  <PUBCHEM_CACTVS_HBOND_ACCEPTOR>  (1) 
3

>  <PUBCHEM_CACTVS_HBOND_DONOR>  (1) 
2

>  <PUBCHEM_CACTVS_ROTATABLE_BOND>  (1) 
2

>  <PUBCHEM_CACTVS_SUBSKEYS>  (1) 
AAADccBwMAAAAAAAAAAAAAAAAAAAAAAAAAAwAAAAAAAAAAABAAAAGgAACAAADASAmAAwCIAAAgCIAiDSCAICAAAgIAAIiABAAMgJJCKAERCAMAAggAAJmYcAgAAOAAAAAAAAAAAAAAAAAAAAAAAAAAAAAA==

>  <PUBCHEM_IUPAC_OPENEYE_NAME>  (1) 
2-hydroxy-3-phenyl-prop-2-enoic acid

>  <PUBCHEM_IUPAC_CAS_NAME>  (1) 
2-hydroxy-3-phenyl-2-propenoic acid

>  <PUBCHEM_IUPAC_NAME_MARKUP>  (1) 
2-hydroxy-3-phenylprop-2-enoic acid

>  <PUBCHEM_IUPAC_NAME>  (1) 
2-hydroxy-3-phenylprop-2-enoic acid

>  <PUBCHEM_IUPAC_SYSTEMATIC_NAME>  (1) 
2-oxidanyl-3-phenyl-prop-2-enoic acid

>  <PUBCHEM_IUPAC_TRADITIONAL_NAME>  (1) 
2-hydroxy-3-phenyl-acrylic acid

>  <PUBCHEM_IUPAC_INCHI>  (1) 
InChI=1S/C9H8O3/c10-8(9(11)12)6-7-4-2-1-3-5-7/h1-6,10H,(H,11,12)

>  <PUBCHEM_IUPAC_INCHIKEY>  (1) 
DEDGUGJNLNLJSR-UHFFFAOYSA-N

>  <PUBCHEM_XLOGP3_AA>  (1) 
1.7

>  <PUBCHEM_EXACT_MASS>  (1) 
164.047344

>  <PUBCHEM_MOLECULAR_FORMULA>  (1) 
C9H8O3

>  <PUBCHEM_MOLECULAR_WEIGHT>  (1) 
164.16

>  <PUBCHEM_OPENEYE_CAN_SMILES>  (1) 
C1=CC=C(C=C1)C=C(C(=O)O)O

>  <PUBCHEM_OPENEYE_ISO_SMILES>  (1) 
C1=CC=C(C=C1)C=C(C(=O)O)O

>  <PUBCHEM_CACTVS_TPSA>  (1) 
57.5

>  <PUBCHEM_MONOISOTOPIC_WEIGHT>  (1) 
164.047344

>  <PUBCHEM_TOTAL_CHARGE>  (1) 
0

>  <PUBCHEM_HEAVY_ATOM_COUNT>  (1) 
12

>  <PUBCHEM_ATOM_DEF_STEREO_COUNT>  (1) 
0

>  <PUBCHEM_ATOM_UDEF_STEREO_COUNT>  (1) 
0

>  <PUBCHEM_BOND_DEF_STEREO_COUNT>  (1) 
0

>  <PUBCHEM_BOND_UDEF_STEREO_COUNT>  (1) 
1

>  <PUBCHEM_ISOTOPIC_ATOM_COUNT>  (1) 
0

>  <PUBCHEM_COMPONENT_COUNT>  (1) 
1

>  <PUBCHEM_CACTVS_TAUTO_COUNT>  (1) 
-1

>  <PUBCHEM_COORDINATE_TYPE>  (1) 
1
5
255

>  <PUBCHEM_BONDANNOTATIONS>  (1) 
4  5  8
4  6  8
5  8  8
6  9  8
7  11  1
8  10  8
9  10  8

$$$$
