692
     RDKit          2D

 48 51  0  0  1  0  0  0  0  0999 V2000
    2.8978    0.0000    0.0000 O   0  0  0  0  0  0  0  0  0  0  0  0
   -1.4489   -2.5095    0.0000 O   0  0  0  0  0  0  0  0  0  0  0  0
   -1.4489    2.5095    0.0000 O   0  0  0  0  0  0  0  0  0  0  0  0
    3.8086    2.1989    0.0000 O   0  0  0  0  0  0  0  0  0  0  0  0
   -0.0000   -4.3978    0.0000 O   0  0  0  0  0  0  0  0  0  0  0  0
   -3.8086    2.1989    0.0000 O   0  0  0  0  0  0  0  0  0  0  0  0
    4.4489   -2.5095    0.0000 O   0  0  0  0  0  0  0  0  0  0  0  0
   -0.0511    5.1076    0.0000 O   0  0  0  0  0  0  0  0  0  0  0  0
   -4.3978   -2.5981    0.0000 O   0  0  0  0  0  0  0  0  0  0  0  0
    6.6989   -3.8086    0.0000 O   0  0  0  0  0  0  0  0  0  0  0  0
   -0.0511    7.7057    0.0000 O   0  0  0  0  0  0  0  0  0  0  0  0
   -6.6478   -3.8971    0.0000 O   0  0  0  0  0  0  0  0  0  0  0  0
    8.1989   -6.4067    0.0000 O   0  0  0  0  0  0  0  0  0  0  0  0
    1.4489   10.3038    0.0000 O   0  0  0  0  0  0  0  0  0  0  0  0
   -9.6478   -3.8971    0.0000 O   0  0  0  0  0  0  0  0  0  0  0  0
    2.1989   -3.8086    0.0000 N   0  0  0  0  0  0  0  0  0  0  0  0
    2.1989    3.8086    0.0000 N   0  0  0  0  0  0  0  0  0  0  0  0
   -4.3978    0.0000    0.0000 N   0  0  0  0  0  0  0  0  0  0  0  0
    1.4489   -2.5095    0.0000 C   0  0  0  0  0  0  0  0  0  0  0  0
    1.4489    2.5095    0.0000 C   0  0  0  0  0  0  0  0  0  0  0  0
   -2.8978    0.0000    0.0000 C   0  0  0  0  0  0  0  0  0  0  0  0
    2.5095   -1.4489    0.0000 C   0  0  0  0  0  0  0  0  0  0  0  0
    0.0000    2.8978    0.0000 C   0  0  0  0  0  0  0  0  0  0  0  0
   -2.5095   -1.4489    0.0000 C   0  0  0  0  0  0  0  0  0  0  0  0
    2.5095    1.4489    0.0000 C   0  0  0  0  0  0  0  0  0  0  0  0
   -0.0000   -2.8978    0.0000 C   0  0  0  0  0  0  0  0  0  0  0  0
   -2.5095    1.4489    0.0000 C   0  0  0  0  0  0  0  0  0  0  0  0
    3.6989   -3.8086    0.0000 C   0  0  0  0  0  0  0  0  0  0  0  0
    1.4489    5.1076    0.0000 C   0  0  0  0  0  0  0  0  0  0  0  0
   -5.1478   -1.2990    0.0000 C   0  0  0  0  0  0  0  0  0  0  0  0
    4.4489   -5.1076    0.0000 C   0  0  0  0  0  0  0  0  0  0  0  0
    2.1989    6.4067    0.0000 C   0  0  0  0  0  0  0  0  0  0  0  0
   -6.6478   -1.2990    0.0000 C   0  0  0  0  0  0  0  0  0  0  0  0
    5.9489   -5.1076    0.0000 C   0  0  0  0  0  0  0  0  0  0  0  0
    1.4489    7.7057    0.0000 C   0  0  0  0  0  0  0  0  0  0  0  0
   -7.3978   -2.5981    0.0000 C   0  0  0  0  0  0  0  0  0  0  0  0
    3.6989   -6.4067    0.0000 C   0  0  0  0  0  0  0  0  0  0  0  0
    3.6989    6.4067    0.0000 C   0  0  0  0  0  0  0  0  0  0  0  0
   -7.3978   -0.0000    0.0000 C   0  0  0  0  0  0  0  0  0  0  0  0
    6.6989   -6.4067    0.0000 C   0  0  0  0  0  0  0  0  0  0  0  0
    2.1989    9.0047    0.0000 C   0  0  0  0  0  0  0  0  0  0  0  0
   -8.8978   -2.5981    0.0000 C   0  0  0  0  0  0  0  0  0  0  0  0
    4.4489   -7.7057    0.0000 C   0  0  0  0  0  0  0  0  0  0  0  0
    4.4489    7.7057    0.0000 C   0  0  0  0  0  0  0  0  0  0  0  0
   -8.8978   -0.0000    0.0000 C   0  0  0  0  0  0  0  0  0  0  0  0
    5.9489   -7.7057    0.0000 C   0  0  0  0  0  0  0  0  0  0  0  0
    3.6989    9.0047    0.0000 C   0  0  0  0  0  0  0  0  0  0  0  0
   -9.6478   -1.2990    0.0000 C   0  0  0  0  0  0  0  0  0  0  0  0
  1 22  1  0
  1 25  1  0
  2 24  1  0
  2 26  1  0
  3 23  1  0
  3 27  1  0
  4 25  2  0
  5 26  2  0
  6 27  2  0
  7 28  2  0
  8 29  2  0
  9 30  2  0
 10 34  1  0
 11 35  1  0
 12 36  1  0
 13 40  1  0
 14 41  1  0
 15 42  1  0
 16 19  1  0
 16 28  1  0
 17 20  1  0
 17 29  1  0
 18 21  1  0
 18 30  1  0
 19 22  1  0
 19 26  1  0
 20 23  1  0
 20 25  1  0
 21 24  1  0
 21 27  1  0
 28 31  1  0
 29 32  1  0
 30 33  1  0
 31 34  2  0
 31 37  1  0
 32 35  2  0
 32 38  1  0
 33 36  2  0
 33 39  1  0
 34 40  1  0
 35 41  1  0
 36 42  1  0
 37 43  2  0
 38 44  2  0
 39 45  2  0
 40 46  2  0
 41 47  2  0
 42 48  2  0
 43 46  1  0
 44 47  1  0
 45 48  1  0
M  END
>  <PUBCHEM_COMPOUND_CID>  (1) 
692

>  <PUBCHEM_COMPOUND_CANONICALIZED>  (1) 
1

>  <PUBCHEM_CACTVS_COMPLEXITY>  (1) 
1060

>  <PUBCHEM_CACTVS_HBOND_ACCEPTOR>  (1) 
15

>  <PUBCHEM_CACTVS_HBOND_DONOR>  (1) 
9

>  <PUBCHEM_CACTVS_ROTATABLE_BOND>  (1) 
6

>  <PUBCHEM_CACTVS_SUBSKEYS>  (1) 
AAADceB7PAAAAAAAAAAAAAAAAAAAAAAAAAAwYMAAAAAAAAABUAAAHgAQCAAADCzhmAYwDoLABgCIAiHSGACCAAAkIAAIiIGOjMgLJjaClTOHcUln9hGZmYe6yDCOAAABAAAIQAAAAAIAABCAAAAAAAAAAA==

>  <PUBCHEM_IUPAC_OPENEYE_NAME>  (1) 
N-[7,11-bis[(2,3-dihydroxybenzoyl)amino]-2,6,10-trioxo-1,5,9-trioxacyclododec-3-yl]-2,3-dihydroxy-benzamide

>  <PUBCHEM_IUPAC_CAS_NAME>  (1) 
N-[7,11-bis[[(2,3-dihydroxyphenyl)-oxomethyl]amino]-2,6,10-trioxo-1,5,9-trioxacyclododec-3-yl]-2,3-dihydroxybenzamide

>  <PUBCHEM_IUPAC_NAME_MARKUP>  (1) 
<I>N</I>-[7,11-bis[(2,3-dihydroxybenzoyl)amino]-2,6,10-trioxo-1,5,9-trioxacyclododec-3-yl]-2,3-dihydroxybenzamide

>  <PUBCHEM_IUPAC_NAME>  (1) 
N-[7,11-bis[(2,3-dihydroxybenzoyl)amino]-2,6,10-trioxo-1,5,9-trioxacyclododec-3-yl]-2,3-dihydroxybenzamide

>  <PUBCHEM_IUPAC_SYSTEMATIC_NAME>  (1) 
N-[7,11-bis[[2,3-bis(oxidanyl)phenyl]carbonylamino]-2,6,10-tris(oxidanylidene)-1,5,9-trioxacyclododec-3-yl]-2,3-bis(oxidanyl)benzamide

>  <PUBCHEM_IUPAC_TRADITIONAL_NAME>  (1) 
N-[7,11-bis[(2,3-dihydroxybenzoyl)amino]-2,6,10-triketo-1,5,9-trioxacyclododec-3-yl]-2,3-dihydroxy-benzamide

>  <PUBCHEM_IUPAC_INCHI>  (1) 
InChI=1S/C30H27N3O15/c34-19-7-1-4-13(22(19)37)25(40)31-16-10-46-29(44)18(33-27(42)15-6-3-9-21(36)24(15)39)12-48-30(45)17(11-47-28(16)43)32-26(41)14-5-2-8-20(35)23(14)38/h1-9,16-18,34-39H,10-12H2,(H,31,40)(H,32,41)(H,33,42)

>  <PUBCHEM_IUPAC_INCHIKEY>  (1) 
SERBHKJMVBATSJ-UHFFFAOYSA-N

>  <PUBCHEM_XLOGP3_AA>  (1) 
2.3

>  <PUBCHEM_EXACT_MASS>  (1) 
669.144217

>  <PUBCHEM_MOLECULAR_FORMULA>  (1) 
C30H27N3O15

>  <PUBCHEM_MOLECULAR_WEIGHT>  (1) 
669.5

>  <PUBCHEM_OPENEYE_CAN_SMILES>  (1) 
C1C(C(=O)OCC(C(=O)OCC(C(=O)O1)NC(=O)C2=C(C(=CC=C2)O)O)NC(=O)C3=C(C(=CC=C3)O)O)NC(=O)C4=C(C(=CC=C4)O)O

>  <PUBCHEM_OPENEYE_ISO_SMILES>  (1) 
C1C(C(=O)OCC(C(=O)OCC(C(=O)O1)NC(=O)C2=C(C(=CC=C2)O)O)NC(=O)C3=C(C(=CC=C3)O)O)NC(=O)C4=C(C(=CC=C4)O)O

>  <PUBCHEM_CACTVS_TPSA>  (1) 
288

>  <PUBCHEM_MONOISOTOPIC_WEIGHT>  (1) 
669.144217

>  <PUBCHEM_TOTAL_CHARGE>  (1) 
0

>  <PUBCHEM_HEAVY_ATOM_COUNT>  (1) 
48

>  <PUBCHEM_ATOM_DEF_STEREO_COUNT>  (1) 
0

>  <PUBCHEM_ATOM_UDEF_STEREO_COUNT>  (1) 
3

>  <PUBCHEM_BOND_DEF_STEREO_COUNT>  (1) 
0

>  <PUBCHEM_BOND_UDEF_STEREO_COUNT>  (1) 
0

>  <PUBCHEM_ISOTOPIC_ATOM_COUNT>  (1) 
0

>  <PUBCHEM_COMPONENT_COUNT>  (1) 
1

>  <PUBCHEM_CACTVS_TAUTO_COUNT>  (1) 
-1

>  <PUBCHEM_COORDINATE_TYPE>  (1) 
1
5
255

>  <PUBCHEM_BONDANNOTATIONS>  (1) 
19  16  3
20  17  3
21  18  3
31  34  8
31  37  8
32  35  8
32  38  8
33  36  8
33  39  8
34  40  8
35  41  8
36  42  8
37  43  8
38  44  8
39  45  8
40  46  8
41  47  8
42  48  8
43  46  8
44  47  8
45  48  8

$$$$
