694
     RDKit          2D

  9  9  0  0  0  0  0  0  0  0999 V2000
   -4.0444    0.0606    0.0000 O   0  0  0  0  0  0  0  0  0  0  0  0
    2.3984   -1.0531    0.0000 N   0  0  0  0  0  0  0  0  0  0  0  0
   -2.5865    0.4135    0.0000 N   0  0  0  0  0  0  0  0  0  0  0  0
   -0.0941   -0.3198    0.0000 C   0  0  0  0  0  0  0  0  0  0  0  0
    0.3293    1.1192    0.0000 C   0  0  0  0  0  0  0  0  0  0  0  0
    0.9405   -1.4059    0.0000 C   0  0  0  0  0  0  0  0  0  0  0  0
    1.7872    1.4721    0.0000 C   0  0  0  0  0  0  0  0  0  0  0  0
    2.8217    0.3860    0.0000 C   0  0  0  0  0  0  0  0  0  0  0  0
   -1.5520   -0.6727    0.0000 C   0  0  0  0  0  0  0  0  0  0  0  0
  1  3  1  0
  2  6  2  0
  2  8  1  0
  3  9  2  3
  4  5  2  0
  4  6  1  0
  4  9  1  0
  5  7  1  0
  7  8  2  0
M  END
>  <PUBCHEM_COMPOUND_CID>  (1) 
694

>  <PUBCHEM_COMPOUND_CANONICALIZED>  (1) 
1

>  <PUBCHEM_CACTVS_COMPLEXITY>  (1) 
103

>  <PUBCHEM_CACTVS_HBOND_ACCEPTOR>  (1) 
3

>  <PUBCHEM_CACTVS_HBOND_DONOR>  (1) 
1

>  <PUBCHEM_CACTVS_ROTATABLE_BOND>  (1) 
1

>  <PUBCHEM_CACTVS_SUBSKEYS>  (1) 
AAADcYBjIAAAAAAAAAAAAAAAAAAAAAAAAAAsAAAAAAAAAAABgAAAHAAECAAADADBGgQ8gJIYEACgAjBnRACCgCAxAiAI2CA4ZJgIIOLAkZGEIAhggADIyAYQAAAMAAAAAAAAAAAAAAAAAAAAAAAAAAAAAA==

>  <PUBCHEM_IUPAC_OPENEYE_NAME>  (1) 
pyridine-3-carbaldehyde oxime

>  <PUBCHEM_IUPAC_CAS_NAME>  (1) 
3-pyridinecarboxaldehyde oxime

>  <PUBCHEM_IUPAC_NAME_MARKUP>  (1) 
<I>N</I>-(pyridin-3-ylmethylidene)hydroxylamine

>  <PUBCHEM_IUPAC_NAME>  (1) 
N-(pyridin-3-ylmethylidene)hydroxylamine

>  <PUBCHEM_IUPAC_SYSTEMATIC_NAME>  (1) 
N-(pyridin-3-ylmethylidene)hydroxylamine

>  <PUBCHEM_IUPAC_TRADITIONAL_NAME>  (1) 
nicotinaldehyde oxime

>  <PUBCHEM_IUPAC_INCHI>  (1) 
InChI=1S/C6H6N2O/c9-8-5-6-2-1-3-7-4-6/h1-5,9H

>  <PUBCHEM_IUPAC_INCHIKEY>  (1) 
YBKOPFQCLSPTPV-UHFFFAOYSA-N

>  <PUBCHEM_XLOGP3_AA>  (1) 
0.6

>  <PUBCHEM_EXACT_MASS>  (1) 
122.048013

>  <PUBCHEM_MOLECULAR_FORMULA>  (1) 
C6H6N2O

>  <PUBCHEM_MOLECULAR_WEIGHT>  (1) 
122.12

>  <PUBCHEM_OPENEYE_CAN_SMILES>  (1) 
C1=CC(=CN=C1)C=NO

>  <PUBCHEM_OPENEYE_ISO_SMILES>  (1) 
C1=CC(=CN=C1)C=NO

>  <PUBCHEM_CACTVS_TPSA>  (1) 
45.5

>  <PUBCHEM_MONOISOTOPIC_WEIGHT>  (1) 
122.048013

>  <PUBCHEM_TOTAL_CHARGE>  (1) 
0

>  <PUBCHEM_HEAVY_ATOM_COUNT>  (1) 
9

>  <PUBCHEM_ATOM_DEF_STEREO_COUNT>  (1) 
0

>  <PUBCHEM_ATOM_UDEF_STEREO_COUNT>  (1) 
0

>  <PUBCHEM_BOND_DEF_STEREO_COUNT>  (1) 
0

>  <PUBCHEM_BOND_UDEF_STEREO_COUNT>  (1) 
1

>  <PUBCHEM_ISOTOPIC_ATOM_COUNT>  (1) 
0

>  <PUBCHEM_COMPONENT_COUNT>  (1) 
1

>  <PUBCHEM_CACTVS_TAUTO_COUNT>  (1) 
-1

>  <PUBCHEM_COORDINATE_TYPE>  (1) 
1
5
255

>  <PUBCHEM_BONDANNOTATIONS>  (1) 
2  6  8
2  8  8
3  9  1
4  5  8
4  6  8
5  7  8
7  8  8

$$$$
