695
     RDKit          2D

 13 12  0  0  1  0  0  0  0  0999 V2000
   -3.2161   -0.0343    0.0000 P   0  0  0  0  0  0  0  0  0  0  0  0
   -1.8505    0.5861    0.0000 O   0  0  0  0  0  0  0  0  0  0  0  0
    0.8809    1.8270    0.0000 O   0  0  0  0  0  0  0  0  0  0  0  0
    1.8100   -2.0313    0.0000 O   0  0  0  0  0  0  0  0  0  0  0  0
   -2.5957   -1.4000    0.0000 O   0  0  0  0  0  0  0  0  0  0  0  0
   -4.5818   -0.6547    0.0000 O   0  0  0  0  0  0  0  0  0  0  0  0
    4.5413   -0.7905    0.0000 O   0  0  0  0  0  0  0  0  0  0  0  0
    3.4667    1.5749    0.0000 O   0  0  0  0  0  0  0  0  0  0  0  0
   -3.8366    1.3314    0.0000 O   0  0  0  0  0  0  0  0  0  0  0  0
    0.7354    0.3341    0.0000 C   0  0  0  0  0  0  0  0  0  0  0  0
   -0.6303   -0.2864    0.0000 C   0  0  0  0  0  0  0  0  0  0  0  0
    1.9555   -0.5384    0.0000 C   0  0  0  0  0  0  0  0  0  0  0  0
    3.3212    0.0820    0.0000 C   0  0  0  0  0  0  0  0  0  0  0  0
  1  2  1  0
  1  5  1  0
  1  6  1  0
  1  9  2  0
  2 11  1  0
  3 10  1  0
  4 12  1  0
  7 13  1  0
  8 13  2  0
 10 11  1  0
 10 12  1  0
 12 13  1  0
M  CHG  1   7  -1
M  END
>  <PUBCHEM_COMPOUND_CID>  (1) 
695

>  <PUBCHEM_COMPOUND_CANONICALIZED>  (1) 
1

>  <PUBCHEM_CACTVS_COMPLEXITY>  (1) 
215

>  <PUBCHEM_CACTVS_HBOND_ACCEPTOR>  (1) 
8

>  <PUBCHEM_CACTVS_HBOND_DONOR>  (1) 
4

>  <PUBCHEM_CACTVS_ROTATABLE_BOND>  (1) 
4

>  <PUBCHEM_CACTVS_SUBSKEYS>  (1) 
AAADccBgPAIAAAAAAAAAAAAAAAAAAAAAAAAAAAAAAAAAAAAAAAAAGgAACCAACBSggAIACAAAAxAIQACQCIIAAAAAAAAAAAFAAAABEBQAAAAAQAAFIAABAABCAAAAAAAAAAAAAAAAAAAAAAAAAAAAAAAAAA==

>  <PUBCHEM_IUPAC_OPENEYE_NAME>  (1) 
2,3-dihydroxy-4-phosphonooxy-butanoate

>  <PUBCHEM_IUPAC_CAS_NAME>  (1) 
2,3-dihydroxy-4-phosphonooxybutanoate

>  <PUBCHEM_IUPAC_NAME_MARKUP>  (1) 
2,3-dihydroxy-4-phosphonooxybutanoate

>  <PUBCHEM_IUPAC_NAME>  (1) 
2,3-dihydroxy-4-phosphonooxybutanoate

>  <PUBCHEM_IUPAC_SYSTEMATIC_NAME>  (1) 
2,3-bis(oxidanyl)-4-phosphonooxy-butanoate

>  <PUBCHEM_IUPAC_TRADITIONAL_NAME>  (1) 
2,3-dihydroxy-4-phosphonooxy-butyrate

>  <PUBCHEM_IUPAC_INCHI>  (1) 
InChI=1S/C4H9O8P/c5-2(3(6)4(7)8)1-12-13(9,10)11/h2-3,5-6H,1H2,(H,7,8)(H2,9,10,11)/p-1

>  <PUBCHEM_IUPAC_INCHIKEY>  (1) 
ZCZXOHUILRHRQJ-UHFFFAOYSA-M

>  <PUBCHEM_XLOGP3_AA>  (1) 
-2.6

>  <PUBCHEM_EXACT_MASS>  (1) 
214.995679

>  <PUBCHEM_MOLECULAR_FORMULA>  (1) 
C4H8O8P-

>  <PUBCHEM_MOLECULAR_WEIGHT>  (1) 
215.08

>  <PUBCHEM_OPENEYE_CAN_SMILES>  (1) 
C(C(C(C(=O)[O-])O)O)OP(=O)(O)O

>  <PUBCHEM_OPENEYE_ISO_SMILES>  (1) 
C(C(C(C(=O)[O-])O)O)OP(=O)(O)O

>  <PUBCHEM_CACTVS_TPSA>  (1) 
147

>  <PUBCHEM_MONOISOTOPIC_WEIGHT>  (1) 
214.995679

>  <PUBCHEM_TOTAL_CHARGE>  (1) 
-1

>  <PUBCHEM_HEAVY_ATOM_COUNT>  (1) 
13

>  <PUBCHEM_ATOM_DEF_STEREO_COUNT>  (1) 
0

>  <PUBCHEM_ATOM_UDEF_STEREO_COUNT>  (1) 
2

>  <PUBCHEM_BOND_DEF_STEREO_COUNT>  (1) 
0

>  <PUBCHEM_BOND_UDEF_STEREO_COUNT>  (1) 
0

>  <PUBCHEM_ISOTOPIC_ATOM_COUNT>  (1) 
0

>  <PUBCHEM_COMPONENT_COUNT>  (1) 
1

>  <PUBCHEM_CACTVS_TAUTO_COUNT>  (1) 
-1

>  <PUBCHEM_COORDINATE_TYPE>  (1) 
1
5
255

>  <PUBCHEM_BONDANNOTATIONS>  (1) 
10  3  3
12  4  3

$$$$
