697
     RDKit          2D

 12 11  0  0  1  0  0  0  0  0999 V2000
   -2.9267   -0.1108    0.0000 P   0  0  0  0  0  0  0  0  0  0  0  0
   -1.6085    0.6049    0.0000 O   0  0  0  0  0  0  0  0  0  0  0  0
    1.0280    2.0362    0.0000 O   0  0  0  0  0  0  0  0  0  0  0  0
    2.2283   -1.7465    0.0000 O   0  0  0  0  0  0  0  0  0  0  0  0
   -2.2111   -1.4291    0.0000 O   0  0  0  0  0  0  0  0  0  0  0  0
   -4.2450   -0.8265    0.0000 O   0  0  0  0  0  0  0  0  0  0  0  0
   -3.6424    1.2074    0.0000 O   0  0  0  0  0  0  0  0  0  0  0  0
    4.8648   -0.3151    0.0000 O   0  0  0  0  0  0  0  0  0  0  0  0
    0.9887    0.5368    0.0000 C   0  0  0  0  0  0  0  0  0  0  0  0
   -0.3296   -0.1789    0.0000 C   0  0  0  0  0  0  0  0  0  0  0  0
    2.2676   -0.2470    0.0000 C   0  0  0  0  0  0  0  0  0  0  0  0
    3.5859    0.4687    0.0000 C   0  0  0  0  0  0  0  0  0  0  0  0
  1  2  1  0
  1  5  1  0
  1  6  1  0
  1  7  2  0
  2 10  1  0
  3  9  1  0
  4 11  1  0
  8 12  2  0
  9 10  1  0
  9 11  1  0
 11 12  1  0
M  END
>  <PUBCHEM_COMPOUND_CID>  (1) 
697

>  <PUBCHEM_COMPOUND_CANONICALIZED>  (1) 
1

>  <PUBCHEM_CACTVS_COMPLEXITY>  (1) 
186

>  <PUBCHEM_CACTVS_HBOND_ACCEPTOR>  (1) 
7

>  <PUBCHEM_CACTVS_HBOND_DONOR>  (1) 
4

>  <PUBCHEM_CACTVS_ROTATABLE_BOND>  (1) 
5

>  <PUBCHEM_CACTVS_SUBSKEYS>  (1) 
AAADccBgOAIAAAAAAAAAAAAAAAAAAAAAAAAAAAAAAAAAAAAAAAAAGgAACCAACBSggAIAAAAAAxAIQAgQgIIAAAAAAAAAAAFAAAABEBQAAAAAQAAFIAABAAACAAAAAAAAAAAAAAAAAAAAAAAAAAAAAAAAAA==

>  <PUBCHEM_IUPAC_OPENEYE_NAME>  (1) 
(2,3-dihydroxy-4-oxo-butyl) dihydrogen phosphate

>  <PUBCHEM_IUPAC_CAS_NAME>  (1) 
(2,3-dihydroxy-4-oxobutyl) dihydrogen phosphate

>  <PUBCHEM_IUPAC_NAME_MARKUP>  (1) 
(2,3-dihydroxy-4-oxobutyl) dihydrogen phosphate

>  <PUBCHEM_IUPAC_NAME>  (1) 
(2,3-dihydroxy-4-oxobutyl) dihydrogen phosphate

>  <PUBCHEM_IUPAC_SYSTEMATIC_NAME>  (1) 
[2,3-bis(oxidanyl)-4-oxidanylidene-butyl] dihydrogen phosphate

>  <PUBCHEM_IUPAC_TRADITIONAL_NAME>  (1) 
(2,3-dihydroxy-4-keto-butyl) dihydrogen phosphate

>  <PUBCHEM_IUPAC_INCHI>  (1) 
InChI=1S/C4H9O7P/c5-1-3(6)4(7)2-11-12(8,9)10/h1,3-4,6-7H,2H2,(H2,8,9,10)

>  <PUBCHEM_IUPAC_INCHIKEY>  (1) 
NGHMDNPXVRFFGS-UHFFFAOYSA-N

>  <PUBCHEM_XLOGP3_AA>  (1) 
-3.3

>  <PUBCHEM_EXACT_MASS>  (1) 
200.00859

>  <PUBCHEM_MOLECULAR_FORMULA>  (1) 
C4H9O7P

>  <PUBCHEM_MOLECULAR_WEIGHT>  (1) 
200.08

>  <PUBCHEM_OPENEYE_CAN_SMILES>  (1) 
C(C(C(C=O)O)O)OP(=O)(O)O

>  <PUBCHEM_OPENEYE_ISO_SMILES>  (1) 
C(C(C(C=O)O)O)OP(=O)(O)O

>  <PUBCHEM_CACTVS_TPSA>  (1) 
124

>  <PUBCHEM_MONOISOTOPIC_WEIGHT>  (1) 
200.00859

>  <PUBCHEM_TOTAL_CHARGE>  (1) 
0

>  <PUBCHEM_HEAVY_ATOM_COUNT>  (1) 
12

>  <PUBCHEM_ATOM_DEF_STEREO_COUNT>  (1) 
0

>  <PUBCHEM_ATOM_UDEF_STEREO_COUNT>  (1) 
2

>  <PUBCHEM_BOND_DEF_STEREO_COUNT>  (1) 
0

>  <PUBCHEM_BOND_UDEF_STEREO_COUNT>  (1) 
0

>  <PUBCHEM_ISOTOPIC_ATOM_COUNT>  (1) 
0

>  <PUBCHEM_COMPONENT_COUNT>  (1) 
1

>  <PUBCHEM_CACTVS_TAUTO_COUNT>  (1) 
-1

>  <PUBCHEM_COORDINATE_TYPE>  (1) 
1
5
255

>  <PUBCHEM_BONDANNOTATIONS>  (1) 
9  3  3
11  4  3

$$$$
