699
     RDKit          2D

 24 27  0  0  1  0  0  0  0  0999 V2000
    5.9485   -0.5125    0.0000 S   0  0  0  0  0  0  0  0  0  0  0  0
   -6.3442   -1.6674    0.0000 O   0  0  0  0  0  0  0  0  0  0  0  0
    5.0212    0.6665    0.0000 O   0  0  0  0  0  0  0  0  0  0  0  0
    6.8758   -1.6915    0.0000 O   0  0  0  0  0  0  0  0  0  0  0  0
    4.7695   -1.4398    0.0000 O   0  0  0  0  0  0  0  0  0  0  0  0
    7.1275    0.4149    0.0000 O   0  0  0  0  0  0  0  0  0  0  0  0
   -3.3297    0.7776    0.0000 C   0  0  0  0  0  0  0  0  0  0  0  0
   -3.8871   -0.6149    0.0000 C   0  0  0  0  0  0  0  0  0  0  0  0
   -1.8450    0.9912    0.0000 C   0  0  0  0  0  0  0  0  0  0  0  0
   -0.9177   -0.1878    0.0000 C   0  0  0  0  0  0  0  0  0  0  0  0
   -2.9598   -1.7940    0.0000 C   0  0  0  0  0  0  0  0  0  0  0  0
   -4.4819    1.7381    0.0000 C   0  0  0  0  0  0  0  0  0  0  0  0
   -1.4751   -1.5804    0.0000 C   0  0  0  0  0  0  0  0  0  0  0  0
   -1.2876    2.3838    0.0000 C   0  0  0  0  0  0  0  0  0  0  0  0
   -5.3838   -0.5152    0.0000 C   0  0  0  0  0  0  0  0  0  0  0  0
   -5.7514    0.9391    0.0000 C   0  0  0  0  0  0  0  0  0  0  0  0
   -4.5870   -1.9416    0.0000 C   0  0  0  0  0  0  0  0  0  0  0  0
    0.5670    0.0258    0.0000 C   0  0  0  0  0  0  0  0  0  0  0  0
    0.1971    2.5974    0.0000 C   0  0  0  0  0  0  0  0  0  0  0  0
    1.1244    1.4184    0.0000 C   0  0  0  0  0  0  0  0  0  0  0  0
    1.4944   -1.1532    0.0000 C   0  0  0  0  0  0  0  0  0  0  0  0
    2.6092    1.6320    0.0000 C   0  0  0  0  0  0  0  0  0  0  0  0
    2.9791   -0.9396    0.0000 C   0  0  0  0  0  0  0  0  0  0  0  0
    3.5365    0.4530    0.0000 C   0  0  0  0  0  0  0  0  0  0  0  0
  1  3  1  0
  1  4  1  0
  1  5  2  0
  1  6  2  0
  2 15  2  0
  3 24  1  0
  7  8  1  0
  7  9  1  0
  7 12  1  0
  8 11  1  0
  8 15  1  0
  8 17  1  0
  9 10  1  0
  9 14  1  0
 10 13  1  0
 10 18  1  0
 11 13  1  0
 12 16  1  0
 14 19  1  0
 15 16  1  0
 18 20  2  0
 18 21  1  0
 19 20  1  0
 20 22  1  0
 21 23  2  0
 22 24  2  0
 23 24  1  0
M  END
>  <PUBCHEM_COMPOUND_CID>  (1) 
699

>  <PUBCHEM_COMPOUND_CANONICALIZED>  (1) 
1

>  <PUBCHEM_CACTVS_COMPLEXITY>  (1) 
624

>  <PUBCHEM_CACTVS_HBOND_ACCEPTOR>  (1) 
5

>  <PUBCHEM_CACTVS_HBOND_DONOR>  (1) 
1

>  <PUBCHEM_CACTVS_ROTATABLE_BOND>  (1) 
2

>  <PUBCHEM_CACTVS_SUBSKEYS>  (1) 
AAADceB4OABAAAAAAAAAAAAAAAAAAYAAAAAwYMAAAAAAAGDBAAAAGgAACAAADwSAmAAyBoAAAICIAqBSADACAAAgIAAIiAEGCIgIJjKAERKAMAAkwBEIiAeIyPCPoAABAAAQAADAAAYAACAAAAAACAAAAA==

>  <PUBCHEM_IUPAC_OPENEYE_NAME>  (1) 
(13-methyl-17-oxo-7,8,9,11,12,14,15,16-octahydro-6H-cyclopenta[a]phenanthren-3-yl) hydrogen sulfate

>  <PUBCHEM_IUPAC_CAS_NAME>  (1) 
sulfuric acid (13-methyl-17-oxo-7,8,9,11,12,14,15,16-octahydro-6H-cyclopenta[a]phenanthren-3-yl) ester

>  <PUBCHEM_IUPAC_NAME_MARKUP>  (1) 
(13-methyl-17-oxo-7,8,9,11,12,14,15,16-octahydro-6<I>H</I>-cyclopenta[a]phenanthren-3-yl) hydrogen sulfate

>  <PUBCHEM_IUPAC_NAME>  (1) 
(13-methyl-17-oxo-7,8,9,11,12,14,15,16-octahydro-6H-cyclopenta[a]phenanthren-3-yl) hydrogen sulfate

>  <PUBCHEM_IUPAC_SYSTEMATIC_NAME>  (1) 
(13-methyl-17-oxidanylidene-7,8,9,11,12,14,15,16-octahydro-6H-cyclopenta[a]phenanthren-3-yl) hydrogen sulfate

>  <PUBCHEM_IUPAC_TRADITIONAL_NAME>  (1) 
sulfuric acid (17-keto-13-methyl-7,8,9,11,12,14,15,16-octahydro-6H-cyclopenta[a]phenanthren-3-yl) ester

>  <PUBCHEM_IUPAC_INCHI>  (1) 
InChI=1S/C18H22O5S/c1-18-9-8-14-13-5-3-12(23-24(20,21)22)10-11(13)2-4-15(14)16(18)6-7-17(18)19/h3,5,10,14-16H,2,4,6-9H2,1H3,(H,20,21,22)

>  <PUBCHEM_IUPAC_INCHIKEY>  (1) 
JKKFKPJIXZFSSB-UHFFFAOYSA-N

>  <PUBCHEM_XLOGP3>  (1) 
2.5

>  <PUBCHEM_EXACT_MASS>  (1) 
350.118795

>  <PUBCHEM_MOLECULAR_FORMULA>  (1) 
C18H22O5S

>  <PUBCHEM_MOLECULAR_WEIGHT>  (1) 
350.4

>  <PUBCHEM_OPENEYE_CAN_SMILES>  (1) 
CC12CCC3C(C1CCC2=O)CCC4=C3C=CC(=C4)OS(=O)(=O)O

>  <PUBCHEM_OPENEYE_ISO_SMILES>  (1) 
CC12CCC3C(C1CCC2=O)CCC4=C3C=CC(=C4)OS(=O)(=O)O

>  <PUBCHEM_CACTVS_TPSA>  (1) 
89

>  <PUBCHEM_MONOISOTOPIC_WEIGHT>  (1) 
350.118795

>  <PUBCHEM_TOTAL_CHARGE>  (1) 
0

>  <PUBCHEM_HEAVY_ATOM_COUNT>  (1) 
24

>  <PUBCHEM_ATOM_DEF_STEREO_COUNT>  (1) 
0

>  <PUBCHEM_ATOM_UDEF_STEREO_COUNT>  (1) 
4

>  <PUBCHEM_BOND_DEF_STEREO_COUNT>  (1) 
0

>  <PUBCHEM_BOND_UDEF_STEREO_COUNT>  (1) 
0

>  <PUBCHEM_ISOTOPIC_ATOM_COUNT>  (1) 
0

>  <PUBCHEM_COMPONENT_COUNT>  (1) 
1

>  <PUBCHEM_CACTVS_TAUTO_COUNT>  (1) 
-1

>  <PUBCHEM_COORDINATE_TYPE>  (1) 
1
5
255

>  <PUBCHEM_BONDANNOTATIONS>  (1) 
10  13  3
18  20  8
18  21  8
20  22  8
21  23  8
22  24  8
23  24  8
7  12  3
8  17  3
9  14  3

$$$$
