7
     RDKit          2D

 12 13  0  0  0  0  0  0  0  0999 V2000
   -1.6518    0.0330    0.0000 N   0  0  0  0  0  0  0  0  0  0  0  0
   -0.1480    1.9380    0.0000 N   0  0  0  0  0  0  0  0  0  0  0  0
    0.3102   -1.8806    0.0000 N   0  0  0  0  0  0  0  0  0  0  0  0
    2.7239   -0.9194    0.0000 N   0  0  0  0  0  0  0  0  0  0  0  0
    3.0983    1.6516    0.0000 N   0  0  0  0  0  0  0  0  0  0  0  0
   -0.2448   -0.4871    0.0000 C   0  0  0  0  0  0  0  0  0  0  0  0
   -2.8995   -0.7996    0.0000 C   0  0  0  0  0  0  0  0  0  0  0  0
    0.6846    0.6903    0.0000 C   0  0  0  0  0  0  0  0  0  0  0  0
   -1.5919    1.5318    0.0000 C   0  0  0  0  0  0  0  0  0  0  0  0
   -4.2444   -0.1353    0.0000 C   0  0  0  0  0  0  0  0  0  0  0  0
    2.1689    0.4742    0.0000 C   0  0  0  0  0  0  0  0  0  0  0  0
    1.7945   -2.0968    0.0000 C   0  0  0  0  0  0  0  0  0  0  0  0
  1  6  1  0
  1  7  1  0
  1  9  1  0
  2  8  1  0
  2  9  2  0
  3  6  2  0
  3 12  1  0
  4 11  1  0
  4 12  2  0
  5 11  1  0
  6  8  1  0
  7 10  1  0
  8 11  2  0
M  END
>  <PUBCHEM_COMPOUND_CID>  (1) 
7

>  <PUBCHEM_COMPOUND_CANONICALIZED>  (1) 
1

>  <PUBCHEM_CACTVS_COMPLEXITY>  (1) 
162

>  <PUBCHEM_CACTVS_HBOND_ACCEPTOR>  (1) 
4

>  <PUBCHEM_CACTVS_HBOND_DONOR>  (1) 
1

>  <PUBCHEM_CACTVS_ROTATABLE_BOND>  (1) 
1

>  <PUBCHEM_CACTVS_SUBSKEYS>  (1) 
AAADccBjgAAAAAAAAAAAAAAAAAAAAWAAAAAsAAAAAAAAAFgB+AAAHAAQAAAACAjBFwQH8L9MEACgAQZhZACAgC0REKABUCAoVBCASABASEAUBAgIAALAACAAAAAAAAAAAAAAAAAAAAAAAAAAAAAAAAAAAA==

>  <PUBCHEM_IUPAC_OPENEYE_NAME>  (1) 
9-ethylpurin-6-amine

>  <PUBCHEM_IUPAC_CAS_NAME>  (1) 
9-ethyl-6-purinamine

>  <PUBCHEM_IUPAC_NAME_MARKUP>  (1) 
9-ethylpurin-6-amine

>  <PUBCHEM_IUPAC_NAME>  (1) 
9-ethylpurin-6-amine

>  <PUBCHEM_IUPAC_SYSTEMATIC_NAME>  (1) 
9-ethylpurin-6-amine

>  <PUBCHEM_IUPAC_TRADITIONAL_NAME>  (1) 
(9-ethylpurin-6-yl)amine

>  <PUBCHEM_IUPAC_INCHI>  (1) 
InChI=1S/C7H9N5/c1-2-12-4-11-5-6(8)9-3-10-7(5)12/h3-4H,2H2,1H3,(H2,8,9,10)

>  <PUBCHEM_IUPAC_INCHIKEY>  (1) 
MUIPLRMGAXZWSQ-UHFFFAOYSA-N

>  <PUBCHEM_XLOGP3>  (1) 
0.2

>  <PUBCHEM_EXACT_MASS>  (1) 
163.085795

>  <PUBCHEM_MOLECULAR_FORMULA>  (1) 
C7H9N5

>  <PUBCHEM_MOLECULAR_WEIGHT>  (1) 
163.18

>  <PUBCHEM_OPENEYE_CAN_SMILES>  (1) 
CCN1C=NC2=C(N=CN=C21)N

>  <PUBCHEM_OPENEYE_ISO_SMILES>  (1) 
CCN1C=NC2=C(N=CN=C21)N

>  <PUBCHEM_CACTVS_TPSA>  (1) 
69.6

>  <PUBCHEM_MONOISOTOPIC_WEIGHT>  (1) 
163.085795

>  <PUBCHEM_TOTAL_CHARGE>  (1) 
0

>  <PUBCHEM_HEAVY_ATOM_COUNT>  (1) 
12

>  <PUBCHEM_ATOM_DEF_STEREO_COUNT>  (1) 
0

>  <PUBCHEM_ATOM_UDEF_STEREO_COUNT>  (1) 
0

>  <PUBCHEM_BOND_DEF_STEREO_COUNT>  (1) 
0

>  <PUBCHEM_BOND_UDEF_STEREO_COUNT>  (1) 
0

>  <PUBCHEM_ISOTOPIC_ATOM_COUNT>  (1) 
0

>  <PUBCHEM_COMPONENT_COUNT>  (1) 
1

>  <PUBCHEM_CACTVS_TAUTO_COUNT>  (1) 
-1

>  <PUBCHEM_COORDINATE_TYPE>  (1) 
1
5
255

>  <PUBCHEM_BONDANNOTATIONS>  (1) 
1  6  8
1  9  8
2  8  8
2  9  8
3  12  8
3  6  8
4  11  8
4  12  8
6  8  8
8  11  8

$$$$
