701
     RDKit          2D

 10  9  0  0  1  0  0  0  0  0999 V2000
    1.2822   -0.2567    0.0000 O   0  0  0  0  0  0  0  0  0  0  0  0
   -3.1179   -1.1993    0.0000 O   0  0  0  0  0  0  0  0  0  0  0  0
    0.7380    2.2837    0.0000 O   0  0  0  0  0  0  0  0  0  0  0  0
   -1.1900    0.5422    0.0000 C   0  0  0  0  0  0  0  0  0  0  0  0
   -2.1954    1.6553    0.0000 C   0  0  0  0  0  0  0  0  0  0  0  0
   -1.6512   -0.8851    0.0000 C   0  0  0  0  0  0  0  0  0  0  0  0
    0.2768    0.8564    0.0000 C   0  0  0  0  0  0  0  0  0  0  0  0
    2.7489    0.0575    0.0000 C   0  0  0  0  0  0  0  0  0  0  0  0
   -0.6458   -1.9982    0.0000 C   0  0  0  0  0  0  0  0  0  0  0  0
    3.7544   -1.0556    0.0000 C   0  0  0  0  0  0  0  0  0  0  0  0
  1  7  1  0
  1  8  1  0
  2  6  2  0
  3  7  2  0
  4  5  1  0
  4  6  1  0
  4  7  1  0
  6  9  1  0
  8 10  1  0
M  END
>  <PUBCHEM_COMPOUND_CID>  (1) 
701

>  <PUBCHEM_COMPOUND_CANONICALIZED>  (1) 
1

>  <PUBCHEM_CACTVS_COMPLEXITY>  (1) 
140

>  <PUBCHEM_CACTVS_HBOND_ACCEPTOR>  (1) 
3

>  <PUBCHEM_CACTVS_HBOND_DONOR>  (1) 
0

>  <PUBCHEM_CACTVS_ROTATABLE_BOND>  (1) 
4

>  <PUBCHEM_CACTVS_SUBSKEYS>  (1) 
AAADccBgMAAAAAAAAAAAAAAAAAAAAAAAAAAAAAAAAAAAAAAAAAAAGgAAAAAADQSggAICCAAABAAIAICQCAAAAAAAAAAAAAEAAAAAABQIAAACAAAEIAAAAAAAAAAIAAAAAAAAAAAAAAAAAAAAAAAAAAAAAA==

>  <PUBCHEM_IUPAC_OPENEYE_NAME>  (1) 
ethyl 2-methyl-3-oxo-butanoate

>  <PUBCHEM_IUPAC_CAS_NAME>  (1) 
2-methyl-3-oxobutanoic acid ethyl ester

>  <PUBCHEM_IUPAC_NAME_MARKUP>  (1) 
ethyl 2-methyl-3-oxobutanoate

>  <PUBCHEM_IUPAC_NAME>  (1) 
ethyl 2-methyl-3-oxobutanoate

>  <PUBCHEM_IUPAC_SYSTEMATIC_NAME>  (1) 
ethyl 2-methyl-3-oxidanylidene-butanoate

>  <PUBCHEM_IUPAC_TRADITIONAL_NAME>  (1) 
3-keto-2-methyl-butyric acid ethyl ester

>  <PUBCHEM_IUPAC_INCHI>  (1) 
InChI=1S/C7H12O3/c1-4-10-7(9)5(2)6(3)8/h5H,4H2,1-3H3

>  <PUBCHEM_IUPAC_INCHIKEY>  (1) 
FNENWZWNOPCZGK-UHFFFAOYSA-N

>  <PUBCHEM_XLOGP3_AA>  (1) 
0.9

>  <PUBCHEM_EXACT_MASS>  (1) 
144.078644

>  <PUBCHEM_MOLECULAR_FORMULA>  (1) 
C7H12O3

>  <PUBCHEM_MOLECULAR_WEIGHT>  (1) 
144.17

>  <PUBCHEM_OPENEYE_CAN_SMILES>  (1) 
CCOC(=O)C(C)C(=O)C

>  <PUBCHEM_OPENEYE_ISO_SMILES>  (1) 
CCOC(=O)C(C)C(=O)C

>  <PUBCHEM_CACTVS_TPSA>  (1) 
43.4

>  <PUBCHEM_MONOISOTOPIC_WEIGHT>  (1) 
144.078644

>  <PUBCHEM_TOTAL_CHARGE>  (1) 
0

>  <PUBCHEM_HEAVY_ATOM_COUNT>  (1) 
10

>  <PUBCHEM_ATOM_DEF_STEREO_COUNT>  (1) 
0

>  <PUBCHEM_ATOM_UDEF_STEREO_COUNT>  (1) 
1

>  <PUBCHEM_BOND_DEF_STEREO_COUNT>  (1) 
0

>  <PUBCHEM_BOND_UDEF_STEREO_COUNT>  (1) 
0

>  <PUBCHEM_ISOTOPIC_ATOM_COUNT>  (1) 
0

>  <PUBCHEM_COMPONENT_COUNT>  (1) 
1

>  <PUBCHEM_CACTVS_TAUTO_COUNT>  (1) 
-1

>  <PUBCHEM_COORDINATE_TYPE>  (1) 
1
5
255

>  <PUBCHEM_BONDANNOTATIONS>  (1) 
4  5  3

$$$$
