706
     RDKit          2D

 24 23  0  0  1  0  0  0  0  0999 V2000
    3.1832   -0.7317    0.0000 P   0  0  0  0  0  0  0  0  0  0  0  0
    5.5789    0.2735    0.0000 P   0  0  0  0  0  0  0  0  0  0  0  0
    1.6951   -0.5427    0.0000 O   0  0  0  0  0  0  0  0  0  0  0  0
    4.6712   -0.9207    0.0000 O   0  0  0  0  0  0  0  0  0  0  0  0
    2.9942   -2.2197    0.0000 O   0  0  0  0  0  0  0  0  0  0  0  0
    3.3722    0.7564    0.0000 O   0  0  0  0  0  0  0  0  0  0  0  0
    4.3847    1.1812    0.0000 O   0  0  0  0  0  0  0  0  0  0  0  0
    6.4866    1.4677    0.0000 O   0  0  0  0  0  0  0  0  0  0  0  0
    6.7731   -0.6342    0.0000 O   0  0  0  0  0  0  0  0  0  0  0  0
   -3.3493    1.4075    0.0000 C   0  0  0  0  0  0  0  0  0  0  0  0
   -2.4416    2.6017    0.0000 C   0  0  0  0  0  0  0  0  0  0  0  0
   -5.1648   -0.9808    0.0000 C   0  0  0  0  0  0  0  0  0  0  0  0
   -5.7451    0.4023    0.0000 C   0  0  0  0  0  0  0  0  0  0  0  0
   -4.8374    1.5965    0.0000 C   0  0  0  0  0  0  0  0  0  0  0  0
   -3.6767   -1.1698    0.0000 C   0  0  0  0  0  0  0  0  0  0  0  0
   -0.9536    2.4127    0.0000 C   0  0  0  0  0  0  0  0  0  0  0  0
   -7.2331    0.5913    0.0000 C   0  0  0  0  0  0  0  0  0  0  0  0
   -3.0964   -2.5530    0.0000 C   0  0  0  0  0  0  0  0  0  0  0  0
   -0.3733    1.0295    0.0000 C   0  0  0  0  0  0  0  0  0  0  0  0
   -0.0459    3.6069    0.0000 C   0  0  0  0  0  0  0  0  0  0  0  0
   -1.6083   -2.7420    0.0000 C   0  0  0  0  0  0  0  0  0  0  0  0
    1.1148    0.8405    0.0000 C   0  0  0  0  0  0  0  0  0  0  0  0
   -1.0280   -4.1252    0.0000 C   0  0  0  0  0  0  0  0  0  0  0  0
   -0.7006   -1.5479    0.0000 C   0  0  0  0  0  0  0  0  0  0  0  0
  1  3  1  0
  1  4  1  0
  1  5  1  0
  1  6  2  0
  2  4  1  0
  2  7  1  0
  2  8  1  0
  2  9  2  0
  3 22  1  0
 10 11  1  0
 10 14  1  0
 11 16  1  0
 12 13  1  0
 12 15  1  0
 13 14  2  3
 13 17  1  0
 15 18  1  0
 16 19  2  3
 16 20  1  0
 18 21  2  3
 19 22  1  0
 21 23  1  0
 21 24  1  0
M  END
>  <PUBCHEM_COMPOUND_CID>  (1) 
706

>  <PUBCHEM_COMPOUND_CANONICALIZED>  (1) 
1

>  <PUBCHEM_CACTVS_COMPLEXITY>  (1) 
568

>  <PUBCHEM_CACTVS_HBOND_ACCEPTOR>  (1) 
7

>  <PUBCHEM_CACTVS_HBOND_DONOR>  (1) 
3

>  <PUBCHEM_CACTVS_ROTATABLE_BOND>  (1) 
11

>  <PUBCHEM_CACTVS_SUBSKEYS>  (1) 
AAADceBwOAMAAAAAAAAAAAAAAAAAAAAAAAAAAAAAAAAAAAAAAAAAGgAACCAADACggAICAAAAARCAQiBCAIAAAAAgAAAACAAAAAgABAIAAQAAEAAAgAAIAAIAAAAAAAAAAAAAAAAAAAAAAAAAAAAAAAAAAA==

>  <PUBCHEM_IUPAC_OPENEYE_NAME>  (1) 
phosphono 3,7,11-trimethyldodeca-2,6,10-trienyl hydrogen phosphate

>  <PUBCHEM_IUPAC_CAS_NAME>  (1) 
phosphono 3,7,11-trimethyldodeca-2,6,10-trienyl hydrogen phosphate

>  <PUBCHEM_IUPAC_NAME_MARKUP>  (1) 
phosphono 3,7,11-trimethyldodeca-2,6,10-trienyl hydrogen phosphate

>  <PUBCHEM_IUPAC_NAME>  (1) 
phosphono 3,7,11-trimethyldodeca-2,6,10-trienyl hydrogen phosphate

>  <PUBCHEM_IUPAC_SYSTEMATIC_NAME>  (1) 
phosphono 3,7,11-trimethyldodeca-2,6,10-trienyl hydrogen phosphate

>  <PUBCHEM_IUPAC_TRADITIONAL_NAME>  (1) 
phosphono 3,7,11-trimethyldodeca-2,6,10-trienyl hydrogen phosphate

>  <PUBCHEM_IUPAC_INCHI>  (1) 
InChI=1S/C15H28O7P2/c1-13(2)7-5-8-14(3)9-6-10-15(4)11-12-21-24(19,20)22-23(16,17)18/h7,9,11H,5-6,8,10,12H2,1-4H3,(H,19,20)(H2,16,17,18)

>  <PUBCHEM_IUPAC_INCHIKEY>  (1) 
VWFJDQUYCIWHTN-UHFFFAOYSA-N

>  <PUBCHEM_XLOGP3_AA>  (1) 
2.6

>  <PUBCHEM_EXACT_MASS>  (1) 
382.131027

>  <PUBCHEM_MOLECULAR_FORMULA>  (1) 
C15H28O7P2

>  <PUBCHEM_MOLECULAR_WEIGHT>  (1) 
382.33

>  <PUBCHEM_OPENEYE_CAN_SMILES>  (1) 
CC(=CCCC(=CCCC(=CCOP(=O)(O)OP(=O)(O)O)C)C)C

>  <PUBCHEM_OPENEYE_ISO_SMILES>  (1) 
CC(=CCCC(=CCCC(=CCOP(=O)(O)OP(=O)(O)O)C)C)C

>  <PUBCHEM_CACTVS_TPSA>  (1) 
113

>  <PUBCHEM_MONOISOTOPIC_WEIGHT>  (1) 
382.131027

>  <PUBCHEM_TOTAL_CHARGE>  (1) 
0

>  <PUBCHEM_HEAVY_ATOM_COUNT>  (1) 
24

>  <PUBCHEM_ATOM_DEF_STEREO_COUNT>  (1) 
0

>  <PUBCHEM_ATOM_UDEF_STEREO_COUNT>  (1) 
0

>  <PUBCHEM_BOND_DEF_STEREO_COUNT>  (1) 
0

>  <PUBCHEM_BOND_UDEF_STEREO_COUNT>  (1) 
2

>  <PUBCHEM_ISOTOPIC_ATOM_COUNT>  (1) 
0

>  <PUBCHEM_COMPONENT_COUNT>  (1) 
1

>  <PUBCHEM_CACTVS_TAUTO_COUNT>  (1) 
-1

>  <PUBCHEM_COORDINATE_TYPE>  (1) 
1
5
255

>  <PUBCHEM_BONDANNOTATIONS>  (1) 
13  14  1
16  19  1

$$$$
