708
     RDKit          2D

 49 48  0  0  1  0  0  0  0  0999 V2000
    7.2739    0.3975    0.0000 P   0  0  0  0  0  0  0  0  0  0  0  0
    9.6827    1.3711    0.0000 P   0  0  0  0  0  0  0  0  0  0  0  0
    5.7885    0.6061    0.0000 O   0  0  0  0  0  0  0  0  0  0  0  0
    8.7593    0.1889    0.0000 O   0  0  0  0  0  0  0  0  0  0  0  0
    7.0653   -1.0879    0.0000 O   0  0  0  0  0  0  0  0  0  0  0  0
    7.4825    1.8829    0.0000 O   0  0  0  0  0  0  0  0  0  0  0  0
    8.5005    2.2944    0.0000 O   0  0  0  0  0  0  0  0  0  0  0  0
   10.6060    2.5532    0.0000 O   0  0  0  0  0  0  0  0  0  0  0  0
   10.8648    0.4477    0.0000 O   0  0  0  0  0  0  0  0  0  0  0  0
  -10.3504   -1.0632    0.0000 C   0  0  0  0  0  0  0  0  0  0  0  0
   -7.5804    2.4832    0.0000 C   0  0  0  0  0  0  0  0  0  0  0  0
   -5.8941   -1.6889    0.0000 C   0  0  0  0  0  0  0  0  0  0  0  0
   -8.8650   -1.2717    0.0000 C   0  0  0  0  0  0  0  0  0  0  0  0
   -8.5037    1.3011    0.0000 C   0  0  0  0  0  0  0  0  0  0  0  0
   -4.4087   -1.8974    0.0000 C   0  0  0  0  0  0  0  0  0  0  0  0
  -10.9125    0.3276    0.0000 C   0  0  0  0  0  0  0  0  0  0  0  0
   -6.8175   -2.8710    0.0000 C   0  0  0  0  0  0  0  0  0  0  0  0
   -6.0950    2.2747    0.0000 C   0  0  0  0  0  0  0  0  0  0  0  0
   -3.6862    3.2482    0.0000 C   0  0  0  0  0  0  0  0  0  0  0  0
   -1.4378   -2.3146    0.0000 C   0  0  0  0  0  0  0  0  0  0  0  0
   -2.7628    4.4304    0.0000 C   0  0  0  0  0  0  0  0  0  0  0  0
   -8.3029   -2.6624    0.0000 C   0  0  0  0  0  0  0  0  0  0  0  0
   -9.9892    1.5097    0.0000 C   0  0  0  0  0  0  0  0  0  0  0  0
   -2.3612   -3.4967    0.0000 C   0  0  0  0  0  0  0  0  0  0  0  0
    0.0476   -2.5232    0.0000 C   0  0  0  0  0  0  0  0  0  0  0  0
   -3.8466   -3.2881    0.0000 C   0  0  0  0  0  0  0  0  0  0  0  0
   -5.1716    3.4568    0.0000 C   0  0  0  0  0  0  0  0  0  0  0  0
   -1.2774    4.2218    0.0000 C   0  0  0  0  0  0  0  0  0  0  0  0
    0.7701    2.6225    0.0000 C   0  0  0  0  0  0  0  0  0  0  0  0
    0.9709   -1.3410    0.0000 C   0  0  0  0  0  0  0  0  0  0  0  0
  -12.3979    0.5361    0.0000 C   0  0  0  0  0  0  0  0  0  0  0  0
    2.4564   -1.5496    0.0000 C   0  0  0  0  0  0  0  0  0  0  0  0
   -6.2554   -4.2617    0.0000 C   0  0  0  0  0  0  0  0  0  0  0  0
   -0.7153    2.8311    0.0000 C   0  0  0  0  0  0  0  0  0  0  0  0
    3.0184   -2.9403    0.0000 C   0  0  0  0  0  0  0  0  0  0  0  0
   -5.5329    0.8840    0.0000 C   0  0  0  0  0  0  0  0  0  0  0  0
    1.6934    3.8046    0.0000 C   0  0  0  0  0  0  0  0  0  0  0  0
   -1.7991   -4.8874    0.0000 C   0  0  0  0  0  0  0  0  0  0  0  0
   -0.3541    5.4039    0.0000 C   0  0  0  0  0  0  0  0  0  0  0  0
    4.5039   -3.1489    0.0000 C   0  0  0  0  0  0  0  0  0  0  0  0
    3.1789    3.5961    0.0000 C   0  0  0  0  0  0  0  0  0  0  0  0
    3.3797   -0.3675    0.0000 C   0  0  0  0  0  0  0  0  0  0  0  0
    5.0660   -4.5396    0.0000 C   0  0  0  0  0  0  0  0  0  0  0  0
    4.1022    4.7782    0.0000 C   0  0  0  0  0  0  0  0  0  0  0  0
    3.7410    2.2054    0.0000 C   0  0  0  0  0  0  0  0  0  0  0  0
    6.5514   -4.7482    0.0000 C   0  0  0  0  0  0  0  0  0  0  0  0
    5.2264    1.9968    0.0000 C   0  0  0  0  0  0  0  0  0  0  0  0
    7.1135   -6.1389    0.0000 C   0  0  0  0  0  0  0  0  0  0  0  0
    7.4747   -3.5660    0.0000 C   0  0  0  0  0  0  0  0  0  0  0  0
  1  3  1  0
  1  4  1  0
  1  5  1  0
  1  6  2  0
  2  4  1  0
  2  7  1  0
  2  8  1  0
  2  9  2  0
  3 47  1  0
 10 13  1  0
 10 16  1  0
 11 14  1  0
 11 18  1  0
 12 15  1  0
 12 17  1  0
 13 22  1  0
 14 23  1  0
 15 26  1  0
 16 23  2  3
 16 31  1  0
 17 22  2  3
 17 33  1  0
 18 27  2  3
 18 36  1  0
 19 21  1  0
 19 27  1  0
 20 24  1  0
 20 25  1  0
 21 28  1  0
 24 26  2  3
 24 38  1  0
 25 30  1  0
 28 34  2  3
 28 39  1  0
 29 34  1  0
 29 37  1  0
 30 32  2  3
 32 35  1  0
 32 42  1  0
 35 40  1  0
 37 41  1  0
 40 43  1  0
 41 44  1  0
 41 45  2  3
 43 46  2  3
 45 47  1  0
 46 48  1  0
 46 49  1  0
M  END
>  <PUBCHEM_COMPOUND_CID>  (1) 
708

>  <PUBCHEM_COMPOUND_CANONICALIZED>  (1) 
1

>  <PUBCHEM_CACTVS_COMPLEXITY>  (1) 
1320

>  <PUBCHEM_CACTVS_HBOND_ACCEPTOR>  (1) 
7

>  <PUBCHEM_CACTVS_HBOND_DONOR>  (1) 
3

>  <PUBCHEM_CACTVS_ROTATABLE_BOND>  (1) 
26

>  <PUBCHEM_CACTVS_SUBSKEYS>  (1) 
AAADcfB8OAMAAAAAAAAAAAAAAAAAAAAAAAAAAAAAAAAAAAAAAAAAGgAACCAADACggAICAAAAARCAQiBCAIAAAAAgAAAACAAAAAgABAIAAQAAEAAAgAAIAAIAAAAAAAAAAAAAAAAAAAAAAAAAAAAAAAAAAA==

>  <PUBCHEM_IUPAC_OPENEYE_NAME>  (1) 
3,7,11,15,19,23,27,31-octamethyldotriaconta-2,6,10,14,18,22,26,30-octaenyl phosphono hydrogen phosphate

>  <PUBCHEM_IUPAC_CAS_NAME>  (1) 
3,7,11,15,19,23,27,31-octamethyldotriaconta-2,6,10,14,18,22,26,30-octaenyl phosphono hydrogen phosphate

>  <PUBCHEM_IUPAC_NAME_MARKUP>  (1) 
3,7,11,15,19,23,27,31-octamethyldotriaconta-2,6,10,14,18,22,26,30-octaenyl phosphono hydrogen phosphate

>  <PUBCHEM_IUPAC_NAME>  (1) 
3,7,11,15,19,23,27,31-octamethyldotriaconta-2,6,10,14,18,22,26,30-octaenyl phosphono hydrogen phosphate

>  <PUBCHEM_IUPAC_SYSTEMATIC_NAME>  (1) 
3,7,11,15,19,23,27,31-octamethyldotriaconta-2,6,10,14,18,22,26,30-octaenyl phosphono hydrogen phosphate

>  <PUBCHEM_IUPAC_TRADITIONAL_NAME>  (1) 
3,7,11,15,19,23,27,31-octamethyldotriaconta-2,6,10,14,18,22,26,30-octaenyl phosphono hydrogen phosphate

>  <PUBCHEM_IUPAC_INCHI>  (1) 
InChI=1S/C40H68O7P2/c1-33(2)17-10-18-34(3)19-11-20-35(4)21-12-22-36(5)23-13-24-37(6)25-14-26-38(7)27-15-28-39(8)29-16-30-40(9)31-32-46-49(44,45)47-48(41,42)43/h17,19,21,23,25,27,29,31H,10-16,18,20,22,24,26,28,30,32H2,1-9H3,(H,44,45)(H2,41,42,43)

>  <PUBCHEM_IUPAC_INCHIKEY>  (1) 
IKKLDISSULFFQO-UHFFFAOYSA-N

>  <PUBCHEM_XLOGP3_AA>  (1) 
11.8

>  <PUBCHEM_EXACT_MASS>  (1) 
722.444029

>  <PUBCHEM_MOLECULAR_FORMULA>  (1) 
C40H68O7P2

>  <PUBCHEM_MOLECULAR_WEIGHT>  (1) 
722.9

>  <PUBCHEM_OPENEYE_CAN_SMILES>  (1) 
CC(=CCCC(=CCCC(=CCCC(=CCCC(=CCCC(=CCCC(=CCCC(=CCOP(=O)(O)OP(=O)(O)O)C)C)C)C)C)C)C)C

>  <PUBCHEM_OPENEYE_ISO_SMILES>  (1) 
CC(=CCCC(=CCCC(=CCCC(=CCCC(=CCCC(=CCCC(=CCCC(=CCOP(=O)(O)OP(=O)(O)O)C)C)C)C)C)C)C)C

>  <PUBCHEM_CACTVS_TPSA>  (1) 
113

>  <PUBCHEM_MONOISOTOPIC_WEIGHT>  (1) 
722.444029

>  <PUBCHEM_TOTAL_CHARGE>  (1) 
0

>  <PUBCHEM_HEAVY_ATOM_COUNT>  (1) 
49

>  <PUBCHEM_ATOM_DEF_STEREO_COUNT>  (1) 
0

>  <PUBCHEM_ATOM_UDEF_STEREO_COUNT>  (1) 
0

>  <PUBCHEM_BOND_DEF_STEREO_COUNT>  (1) 
0

>  <PUBCHEM_BOND_UDEF_STEREO_COUNT>  (1) 
7

>  <PUBCHEM_ISOTOPIC_ATOM_COUNT>  (1) 
0

>  <PUBCHEM_COMPONENT_COUNT>  (1) 
1

>  <PUBCHEM_CACTVS_TAUTO_COUNT>  (1) 
-1

>  <PUBCHEM_COORDINATE_TYPE>  (1) 
1
5
255

>  <PUBCHEM_BONDANNOTATIONS>  (1) 
16  23  1
17  22  1
18  27  1
24  26  1
28  34  1
30  32  1
41  45  1

$$$$
