712
     RDKit          2D

  2  1  0  0  0  0  0  0  0  0999 V2000
    0.7500   -0.0000    0.0000 O   0  0  0  0  0  0  0  0  0  0  0  0
   -0.7500    0.0000    0.0000 C   0  0  0  0  0  0  0  0  0  0  0  0
  1  2  2  0
M  END
>  <PUBCHEM_COMPOUND_CID>  (1) 
712

>  <PUBCHEM_COMPOUND_CANONICALIZED>  (1) 
1

>  <PUBCHEM_CACTVS_COMPLEXITY>  (1) 
2

>  <PUBCHEM_CACTVS_HBOND_ACCEPTOR>  (1) 
1

>  <PUBCHEM_CACTVS_HBOND_DONOR>  (1) 
0

>  <PUBCHEM_CACTVS_ROTATABLE_BOND>  (1) 
0

>  <PUBCHEM_CACTVS_SUBSKEYS>  (1) 
AAADcQAAIAAAAAAAAAAAAAAAAAAAAAAAAAAAAAAAAAAAAAAAAAAAEgAAAAAAAAAAAAIAAAAAAAAIAAAAgAAAAAAAAAAAAAAAAAAAAAAAAAAAAAAAAAAAAAAAAAAAAAAAAAAAAAAAAAAAAAAAAAAAAAAAAA==

>  <PUBCHEM_IUPAC_OPENEYE_NAME>  (1) 
formaldehyde

>  <PUBCHEM_IUPAC_CAS_NAME>  (1) 
formaldehyde

>  <PUBCHEM_IUPAC_NAME_MARKUP>  (1) 
formaldehyde

>  <PUBCHEM_IUPAC_NAME>  (1) 
formaldehyde

>  <PUBCHEM_IUPAC_SYSTEMATIC_NAME>  (1) 
methanal

>  <PUBCHEM_IUPAC_TRADITIONAL_NAME>  (1) 
formaldehyde

>  <PUBCHEM_IUPAC_INCHI>  (1) 
InChI=1S/CH2O/c1-2/h1H2

>  <PUBCHEM_IUPAC_INCHIKEY>  (1) 
WSFSSNUMVMOOMR-UHFFFAOYSA-N

>  <PUBCHEM_XLOGP3_AA>  (1) 
1.2

>  <PUBCHEM_EXACT_MASS>  (1) 
30.010565

>  <PUBCHEM_MOLECULAR_FORMULA>  (1) 
CH2O

>  <PUBCHEM_MOLECULAR_WEIGHT>  (1) 
30.026

>  <PUBCHEM_OPENEYE_CAN_SMILES>  (1) 
C=O

>  <PUBCHEM_OPENEYE_ISO_SMILES>  (1) 
C=O

>  <PUBCHEM_CACTVS_TPSA>  (1) 
17.1

>  <PUBCHEM_MONOISOTOPIC_WEIGHT>  (1) 
30.010565

>  <PUBCHEM_TOTAL_CHARGE>  (1) 
0

>  <PUBCHEM_HEAVY_ATOM_COUNT>  (1) 
2

>  <PUBCHEM_ATOM_DEF_STEREO_COUNT>  (1) 
0

>  <PUBCHEM_ATOM_UDEF_STEREO_COUNT>  (1) 
0

>  <PUBCHEM_BOND_DEF_STEREO_COUNT>  (1) 
0

>  <PUBCHEM_BOND_UDEF_STEREO_COUNT>  (1) 
0

>  <PUBCHEM_ISOTOPIC_ATOM_COUNT>  (1) 
0

>  <PUBCHEM_COMPONENT_COUNT>  (1) 
1

>  <PUBCHEM_CACTVS_TAUTO_COUNT>  (1) 
-1

>  <PUBCHEM_COORDINATE_TYPE>  (1) 
1
5
255

$$$$
