717
     RDKit          2D

 16 16  0  0  1  0  0  0  0  0999 V2000
    3.6117   -0.2159    0.0000 P   0  0  0  0  0  0  0  0  0  0  0  0
   -1.6124   -1.1657    0.0000 O   0  0  0  0  0  0  0  0  0  0  0  0
    0.3267   -1.6846    0.0000 O   0  0  0  0  0  0  0  0  0  0  0  0
    0.2002    2.2664    0.0000 O   0  0  0  0  0  0  0  0  0  0  0  0
   -3.0587    2.4362    0.0000 O   0  0  0  0  0  0  0  0  0  0  0  0
    2.2115   -0.7539    0.0000 O   0  0  0  0  0  0  0  0  0  0  0  0
   -4.6150   -2.0598    0.0000 O   0  0  0  0  0  0  0  0  0  0  0  0
    3.0737    1.1843    0.0000 O   0  0  0  0  0  0  0  0  0  0  0  0
    5.0119    0.3221    0.0000 O   0  0  0  0  0  0  0  0  0  0  0  0
    4.1497   -1.6161    0.0000 O   0  0  0  0  0  0  0  0  0  0  0  0
   -0.3547   -0.3483    0.0000 C   0  0  0  0  0  0  0  0  0  0  0  0
   -0.7434    1.1004    0.0000 C   0  0  0  0  0  0  0  0  0  0  0  0
   -2.2414    1.1784    0.0000 C   0  0  0  0  0  0  0  0  0  0  0  0
   -2.7784   -0.2221    0.0000 C   0  0  0  0  0  0  0  0  0  0  0  0
    1.0455    0.1897    0.0000 C   0  0  0  0  0  0  0  0  0  0  0  0
   -4.2272   -0.6108    0.0000 C   0  0  0  0  0  0  0  0  0  0  0  0
  1  6  1  0
  1  8  1  0
  1  9  1  0
  1 10  2  0
  2 11  1  0
  2 14  1  0
  3 11  1  0
  4 12  1  0
  5 13  1  0
  6 15  1  0
  7 16  1  0
 11 12  1  0
 11 15  1  0
 12 13  1  0
 13 14  1  0
 14 16  1  0
M  END
>  <PUBCHEM_COMPOUND_CID>  (1) 
717

>  <PUBCHEM_COMPOUND_CANONICALIZED>  (1) 
1

>  <PUBCHEM_CACTVS_COMPLEXITY>  (1) 
290

>  <PUBCHEM_CACTVS_HBOND_ACCEPTOR>  (1) 
9

>  <PUBCHEM_CACTVS_HBOND_DONOR>  (1) 
6

>  <PUBCHEM_CACTVS_ROTATABLE_BOND>  (1) 
4

>  <PUBCHEM_CACTVS_SUBSKEYS>  (1) 
AAADccBgPAIAAAAAAAAAAAAAAAAAASAAAAAAAAAAAAAAAAAAAAAAGgAACCAACBSggAIACAAABxAAQAAAAIAAAAAAAAAAAAAAAAAREAIAAAACQAAFAAAHAAHAYAQAAAAAAAAAAAAAAAAAAAAAAAAAAAAAAA==

>  <PUBCHEM_IUPAC_OPENEYE_NAME>  (1) 
[2,3,4-trihydroxy-5-(hydroxymethyl)tetrahydrofuran-2-yl]methyl dihydrogen phosphate

>  <PUBCHEM_IUPAC_CAS_NAME>  (1) 
[2,3,4-trihydroxy-5-(hydroxymethyl)-2-oxolanyl]methyl dihydrogen phosphate

>  <PUBCHEM_IUPAC_NAME_MARKUP>  (1) 
[2,3,4-trihydroxy-5-(hydroxymethyl)oxolan-2-yl]methyl dihydrogen phosphate

>  <PUBCHEM_IUPAC_NAME>  (1) 
[2,3,4-trihydroxy-5-(hydroxymethyl)oxolan-2-yl]methyl dihydrogen phosphate

>  <PUBCHEM_IUPAC_SYSTEMATIC_NAME>  (1) 
[5-(hydroxymethyl)-2,3,4-tris(oxidanyl)oxolan-2-yl]methyl dihydrogen phosphate

>  <PUBCHEM_IUPAC_TRADITIONAL_NAME>  (1) 
(2,3,4-trihydroxy-5-methylol-tetrahydrofuran-2-yl)methyl dihydrogen phosphate

>  <PUBCHEM_IUPAC_INCHI>  (1) 
InChI=1S/C6H13O9P/c7-1-3-4(8)5(9)6(10,15-3)2-14-16(11,12)13/h3-5,7-10H,1-2H2,(H2,11,12,13)

>  <PUBCHEM_IUPAC_INCHIKEY>  (1) 
RHKKZBWRNHGJEZ-UHFFFAOYSA-N

>  <PUBCHEM_XLOGP3_AA>  (1) 
-3.9

>  <PUBCHEM_EXACT_MASS>  (1) 
260.029719

>  <PUBCHEM_MOLECULAR_FORMULA>  (1) 
C6H13O9P

>  <PUBCHEM_MOLECULAR_WEIGHT>  (1) 
260.14

>  <PUBCHEM_OPENEYE_CAN_SMILES>  (1) 
C(C1C(C(C(O1)(COP(=O)(O)O)O)O)O)O

>  <PUBCHEM_OPENEYE_ISO_SMILES>  (1) 
C(C1C(C(C(O1)(COP(=O)(O)O)O)O)O)O

>  <PUBCHEM_CACTVS_TPSA>  (1) 
157

>  <PUBCHEM_MONOISOTOPIC_WEIGHT>  (1) 
260.029719

>  <PUBCHEM_TOTAL_CHARGE>  (1) 
0

>  <PUBCHEM_HEAVY_ATOM_COUNT>  (1) 
16

>  <PUBCHEM_ATOM_DEF_STEREO_COUNT>  (1) 
0

>  <PUBCHEM_ATOM_UDEF_STEREO_COUNT>  (1) 
4

>  <PUBCHEM_BOND_DEF_STEREO_COUNT>  (1) 
0

>  <PUBCHEM_BOND_UDEF_STEREO_COUNT>  (1) 
0

>  <PUBCHEM_ISOTOPIC_ATOM_COUNT>  (1) 
0

>  <PUBCHEM_COMPONENT_COUNT>  (1) 
1

>  <PUBCHEM_CACTVS_TAUTO_COUNT>  (1) 
-1

>  <PUBCHEM_COORDINATE_TYPE>  (1) 
1
5
255

>  <PUBCHEM_BONDANNOTATIONS>  (1) 
14  16  3
11  3  3
12  4  3
13  5  3

$$$$
