718
     RDKit          2D

 20 20  0  0  1  0  0  0  0  0999 V2000
    4.8412   -0.7926    0.0000 P   0  0  0  0  0  0  0  0  0  0  0  0
   -5.0884   -0.8392    0.0000 P   0  0  0  0  0  0  0  0  0  0  0  0
   -0.4638   -0.5684    0.0000 O   0  0  0  0  0  0  0  0  0  0  0  0
    1.3134   -1.5017    0.0000 O   0  0  0  0  0  0  0  0  0  0  0  0
    2.0603    2.3802    0.0000 O   0  0  0  0  0  0  0  0  0  0  0  0
   -1.0813    3.2636    0.0000 O   0  0  0  0  0  0  0  0  0  0  0  0
    3.3569   -1.0090    0.0000 O   0  0  0  0  0  0  0  0  0  0  0  0
   -3.5896   -0.7792    0.0000 O   0  0  0  0  0  0  0  0  0  0  0  0
    4.6249    0.6917    0.0000 O   0  0  0  0  0  0  0  0  0  0  0  0
    6.3256   -0.5762    0.0000 O   0  0  0  0  0  0  0  0  0  0  0  0
   -5.1484    0.6595    0.0000 O   0  0  0  0  0  0  0  0  0  0  0  0
   -6.5872   -0.8993    0.0000 O   0  0  0  0  0  0  0  0  0  0  0  0
    5.0576   -2.2769    0.0000 O   0  0  0  0  0  0  0  0  0  0  0  0
   -5.0283   -2.3380    0.0000 O   0  0  0  0  0  0  0  0  0  0  0  0
    0.9431   -0.0481    0.0000 C   0  0  0  0  0  0  0  0  0  0  0  0
    0.8830    1.4507    0.0000 C   0  0  0  0  0  0  0  0  0  0  0  0
   -0.5610    1.8567    0.0000 C   0  0  0  0  0  0  0  0  0  0  0  0
   -1.3934    0.6089    0.0000 C   0  0  0  0  0  0  0  0  0  0  0  0
    2.4274    0.1683    0.0000 C   0  0  0  0  0  0  0  0  0  0  0  0
   -2.8922    0.5488    0.0000 C   0  0  0  0  0  0  0  0  0  0  0  0
  1  7  1  0
  1  9  1  0
  1 10  1  0
  1 13  2  0
  2  8  1  0
  2 11  1  0
  2 12  1  0
  2 14  2  0
  3 15  1  0
  3 18  1  0
  4 15  1  0
  5 16  1  0
  6 17  1  0
  7 19  1  0
  8 20  1  0
 15 16  1  0
 15 19  1  0
 16 17  1  0
 17 18  1  0
 18 20  1  0
M  END
>  <PUBCHEM_COMPOUND_CID>  (1) 
718

>  <PUBCHEM_COMPOUND_CANONICALIZED>  (1) 
1

>  <PUBCHEM_CACTVS_COMPLEXITY>  (1) 
428

>  <PUBCHEM_CACTVS_HBOND_ACCEPTOR>  (1) 
12

>  <PUBCHEM_CACTVS_HBOND_DONOR>  (1) 
7

>  <PUBCHEM_CACTVS_ROTATABLE_BOND>  (1) 
6

>  <PUBCHEM_CACTVS_SUBSKEYS>  (1) 
AAADccBgPAMAAAAAAAAAAAAAAAAAASAAAAAAAAAAAAAAAAAAAAAAGgAACCAACBSggAIACAAABxAAQAAAAIAAAAAAAAAAAAAAAAAREAIAAAACQAAFAAAHAAHAYAQAAAAAAAAAAAAAAAAAAAAAAAAAAAAAAA==

>  <PUBCHEM_IUPAC_OPENEYE_NAME>  (1) 
[2,3,4-trihydroxy-5-(phosphonooxymethyl)tetrahydrofuran-2-yl]methyl dihydrogen phosphate

>  <PUBCHEM_IUPAC_CAS_NAME>  (1) 
[2,3,4-trihydroxy-5-(phosphonooxymethyl)-2-oxolanyl]methyl dihydrogen phosphate

>  <PUBCHEM_IUPAC_NAME_MARKUP>  (1) 
[2,3,4-trihydroxy-5-(phosphonooxymethyl)oxolan-2-yl]methyl dihydrogen phosphate

>  <PUBCHEM_IUPAC_NAME>  (1) 
[2,3,4-trihydroxy-5-(phosphonooxymethyl)oxolan-2-yl]methyl dihydrogen phosphate

>  <PUBCHEM_IUPAC_SYSTEMATIC_NAME>  (1) 
[2,3,4-tris(oxidanyl)-5-(phosphonooxymethyl)oxolan-2-yl]methyl dihydrogen phosphate

>  <PUBCHEM_IUPAC_TRADITIONAL_NAME>  (1) 
[2,3,4-trihydroxy-5-(phosphonooxymethyl)tetrahydrofuran-2-yl]methyl dihydrogen phosphate

>  <PUBCHEM_IUPAC_INCHI>  (1) 
InChI=1S/C6H14O12P2/c7-4-3(1-16-19(10,11)12)18-6(9,5(4)8)2-17-20(13,14)15/h3-5,7-9H,1-2H2,(H2,10,11,12)(H2,13,14,15)

>  <PUBCHEM_IUPAC_INCHIKEY>  (1) 
RNBGYGVWRKECFJ-UHFFFAOYSA-N

>  <PUBCHEM_XLOGP3_AA>  (1) 
-5.6

>  <PUBCHEM_EXACT_MASS>  (1) 
339.99605

>  <PUBCHEM_MOLECULAR_FORMULA>  (1) 
C6H14O12P2

>  <PUBCHEM_MOLECULAR_WEIGHT>  (1) 
340.12

>  <PUBCHEM_OPENEYE_CAN_SMILES>  (1) 
C(C1C(C(C(O1)(COP(=O)(O)O)O)O)O)OP(=O)(O)O

>  <PUBCHEM_OPENEYE_ISO_SMILES>  (1) 
C(C1C(C(C(O1)(COP(=O)(O)O)O)O)O)OP(=O)(O)O

>  <PUBCHEM_CACTVS_TPSA>  (1) 
203

>  <PUBCHEM_MONOISOTOPIC_WEIGHT>  (1) 
339.99605

>  <PUBCHEM_TOTAL_CHARGE>  (1) 
0

>  <PUBCHEM_HEAVY_ATOM_COUNT>  (1) 
20

>  <PUBCHEM_ATOM_DEF_STEREO_COUNT>  (1) 
0

>  <PUBCHEM_ATOM_UDEF_STEREO_COUNT>  (1) 
4

>  <PUBCHEM_BOND_DEF_STEREO_COUNT>  (1) 
0

>  <PUBCHEM_BOND_UDEF_STEREO_COUNT>  (1) 
0

>  <PUBCHEM_ISOTOPIC_ATOM_COUNT>  (1) 
0

>  <PUBCHEM_COMPONENT_COUNT>  (1) 
1

>  <PUBCHEM_CACTVS_TAUTO_COUNT>  (1) 
-1

>  <PUBCHEM_COORDINATE_TYPE>  (1) 
1
5
255

>  <PUBCHEM_BONDANNOTATIONS>  (1) 
18  20  3
15  4  3
16  5  3
17  6  3

$$$$
