727
     RDKit          2D

 12 12  0  0  0  0  0  0  0  0999 V2000
    3.0000    0.0000    0.0000 Cl  0  0  0  0  0  0  0  0  0  0  0  0
    1.5000   -2.5981    0.0000 Cl  0  0  0  0  0  0  0  0  0  0  0  0
    1.5000    2.5981    0.0000 Cl  0  0  0  0  0  0  0  0  0  0  0  0
   -1.5000   -2.5981    0.0000 Cl  0  0  0  0  0  0  0  0  0  0  0  0
   -1.5000    2.5981    0.0000 Cl  0  0  0  0  0  0  0  0  0  0  0  0
   -3.0000    0.0000    0.0000 Cl  0  0  0  0  0  0  0  0  0  0  0  0
    1.5000    0.0000    0.0000 C   0  0  0  0  0  0  0  0  0  0  0  0
    0.7500   -1.2990    0.0000 C   0  0  0  0  0  0  0  0  0  0  0  0
    0.7500    1.2990    0.0000 C   0  0  0  0  0  0  0  0  0  0  0  0
   -0.7500   -1.2990    0.0000 C   0  0  0  0  0  0  0  0  0  0  0  0
   -0.7500    1.2990    0.0000 C   0  0  0  0  0  0  0  0  0  0  0  0
   -1.5000    0.0000    0.0000 C   0  0  0  0  0  0  0  0  0  0  0  0
  1  7  1  0
  2  8  1  0
  3  9  1  0
  4 10  1  0
  5 11  1  0
  6 12  1  0
  7  8  1  0
  7  9  1  0
  8 10  1  0
  9 11  1  0
 10 12  1  0
 11 12  1  0
M  END
>  <PUBCHEM_COMPOUND_CID>  (1) 
727

>  <PUBCHEM_COMPOUND_CANONICALIZED>  (1) 
1

>  <PUBCHEM_CACTVS_COMPLEXITY>  (1) 
104

>  <PUBCHEM_CACTVS_HBOND_ACCEPTOR>  (1) 
0

>  <PUBCHEM_CACTVS_HBOND_DONOR>  (1) 
0

>  <PUBCHEM_CACTVS_ROTATABLE_BOND>  (1) 
0

>  <PUBCHEM_CACTVS_SUBSKEYS>  (1) 
AAADcYBgAAAHAAAAAAAAAAAAAAAAAAAAAAAwAAAAAAAAAAAAAAAAGAIAAAAACAOAAEAAAAAAAAAAAAAAAAAAAAAAAAAAAEAAAgAAAAIBAAAAAAAAAAAAAAEAAAAAAAAAAAAAAAAAACAAAQAACAAAAAAAAA==

>  <PUBCHEM_IUPAC_OPENEYE_NAME>  (1) 
1,2,3,4,5,6-hexachlorocyclohexane

>  <PUBCHEM_IUPAC_CAS_NAME>  (1) 
1,2,3,4,5,6-hexachlorocyclohexane

>  <PUBCHEM_IUPAC_NAME_MARKUP>  (1) 
1,2,3,4,5,6-hexachlorocyclohexane

>  <PUBCHEM_IUPAC_NAME>  (1) 
1,2,3,4,5,6-hexachlorocyclohexane

>  <PUBCHEM_IUPAC_SYSTEMATIC_NAME>  (1) 
1,2,3,4,5,6-hexakis(chloranyl)cyclohexane

>  <PUBCHEM_IUPAC_TRADITIONAL_NAME>  (1) 
1,2,3,4,5,6-hexachlorocyclohexane

>  <PUBCHEM_IUPAC_INCHI>  (1) 
InChI=1S/C6H6Cl6/c7-1-2(8)4(10)6(12)5(11)3(1)9/h1-6H

>  <PUBCHEM_IUPAC_INCHIKEY>  (1) 
JLYXXMFPNIAWKQ-UHFFFAOYSA-N

>  <PUBCHEM_XLOGP3>  (1) 
3.8

>  <PUBCHEM_EXACT_MASS>  (1) 
289.857116

>  <PUBCHEM_MOLECULAR_FORMULA>  (1) 
C6H6Cl6

>  <PUBCHEM_MOLECULAR_WEIGHT>  (1) 
290.8

>  <PUBCHEM_OPENEYE_CAN_SMILES>  (1) 
C1(C(C(C(C(C1Cl)Cl)Cl)Cl)Cl)Cl

>  <PUBCHEM_OPENEYE_ISO_SMILES>  (1) 
C1(C(C(C(C(C1Cl)Cl)Cl)Cl)Cl)Cl

>  <PUBCHEM_CACTVS_TPSA>  (1) 
0

>  <PUBCHEM_MONOISOTOPIC_WEIGHT>  (1) 
287.860066

>  <PUBCHEM_TOTAL_CHARGE>  (1) 
0

>  <PUBCHEM_HEAVY_ATOM_COUNT>  (1) 
12

>  <PUBCHEM_ATOM_DEF_STEREO_COUNT>  (1) 
0

>  <PUBCHEM_ATOM_UDEF_STEREO_COUNT>  (1) 
0

>  <PUBCHEM_BOND_DEF_STEREO_COUNT>  (1) 
0

>  <PUBCHEM_BOND_UDEF_STEREO_COUNT>  (1) 
0

>  <PUBCHEM_ISOTOPIC_ATOM_COUNT>  (1) 
0

>  <PUBCHEM_COMPONENT_COUNT>  (1) 
1

>  <PUBCHEM_CACTVS_TAUTO_COUNT>  (1) 
-1

>  <PUBCHEM_COORDINATE_TYPE>  (1) 
1
5
255

$$$$
