73
     RDKit          2D

 27 29  0  0  1  0  0  0  0  0999 V2000
   -3.3237   -2.5540    0.0000 P   0  0  0  0  0  0  0  0  0  0  0  0
   -4.9796    2.2025    0.0000 P   0  0  0  0  0  0  0  0  0  0  0  0
   -0.4905    1.0588    0.0000 O   0  0  0  0  0  0  0  0  0  0  0  0
   -1.8240   -2.5863    0.0000 O   0  0  0  0  0  0  0  0  0  0  0  0
    1.4281   -2.3153    0.0000 O   0  0  0  0  0  0  0  0  0  0  0  0
   -3.5194    1.8590    0.0000 O   0  0  0  0  0  0  0  0  0  0  0  0
   -3.2913   -1.0544    0.0000 O   0  0  0  0  0  0  0  0  0  0  0  0
   -4.8233   -2.5217    0.0000 O   0  0  0  0  0  0  0  0  0  0  0  0
   -3.3560   -4.0537    0.0000 O   0  0  0  0  0  0  0  0  0  0  0  0
   -5.3230    0.7423    0.0000 O   0  0  0  0  0  0  0  0  0  0  0  0
   -6.4398    2.5459    0.0000 O   0  0  0  0  0  0  0  0  0  0  0  0
   -4.6362    3.6626    0.0000 O   0  0  0  0  0  0  0  0  0  0  0  0
    2.1752    0.8614    0.0000 N   0  0  0  0  0  0  0  0  0  0  0  0
    4.0134    2.4462    0.0000 N   0  0  0  0  0  0  0  0  0  0  0  0
    3.7379   -1.3900    0.0000 N   0  0  0  0  0  0  0  0  0  0  0  0
    6.2903   -0.9047    0.0000 N   0  0  0  0  0  0  0  0  0  0  0  0
    7.1462    1.5483    0.0000 N   0  0  0  0  0  0  0  0  0  0  0  0
   -1.0462   -1.3038    0.0000 C   0  0  0  0  0  0  0  0  0  0  0  0
    0.4486   -1.1792    0.0000 C   0  0  0  0  0  0  0  0  0  0  0  0
   -1.6266    0.0794    0.0000 C   0  0  0  0  0  0  0  0  0  0  0  0
    0.7920    0.2810    0.0000 C   0  0  0  0  0  0  0  0  0  0  0  0
   -3.0868    0.4228    0.0000 C   0  0  0  0  0  0  0  0  0  0  0  0
    3.4578    0.0836    0.0000 C   0  0  0  0  0  0  0  0  0  0  0  0
    2.5186    2.3216    0.0000 C   0  0  0  0  0  0  0  0  0  0  0  0
    4.5939    1.0630    0.0000 C   0  0  0  0  0  0  0  0  0  0  0  0
    6.0101    0.5689    0.0000 C   0  0  0  0  0  0  0  0  0  0  0  0
    5.1542   -1.8842    0.0000 C   0  0  0  0  0  0  0  0  0  0  0  0
  1  4  1  0
  1  7  1  0
  1  8  1  0
  1  9  2  0
  2  6  1  0
  2 10  1  0
  2 11  1  0
  2 12  2  0
  3 20  1  0
  3 21  1  0
  4 18  1  0
  5 19  1  0
  6 22  1  0
 13 21  1  0
 13 23  1  0
 13 24  1  0
 14 24  2  0
 14 25  1  0
 15 23  1  0
 15 27  2  0
 16 26  2  0
 16 27  1  0
 17 26  1  0
 18 19  1  0
 18 20  1  0
 19 21  1  0
 20 22  1  0
 23 25  2  0
 25 26  1  0
M  END
>  <PUBCHEM_COMPOUND_CID>  (1) 
73

>  <PUBCHEM_COMPOUND_CANONICALIZED>  (1) 
1

>  <PUBCHEM_CACTVS_COMPLEXITY>  (1) 
632

>  <PUBCHEM_CACTVS_HBOND_ACCEPTOR>  (1) 
14

>  <PUBCHEM_CACTVS_HBOND_DONOR>  (1) 
6

>  <PUBCHEM_CACTVS_ROTATABLE_BOND>  (1) 
6

>  <PUBCHEM_CACTVS_SUBSKEYS>  (1) 
AAADccBzvAMAAAAAAAAAAAAAAAAAAWJAAAAsAAAAAAAAAFgB+AAAHgAQCCAACBzhlwYF8L9MFxCgQQZhZICAgC0REKABUCAoVBCDWAJAyEAeRAgPAALTACDwMAIAAAAAAAAAAAAAAAAAAAAAAAAAAAAAAA==

>  <PUBCHEM_IUPAC_OPENEYE_NAME>  (1) 
[5-(6-aminopurin-9-yl)-4-hydroxy-2-(phosphonooxymethyl)tetrahydrofuran-3-yl] dihydrogen phosphate

>  <PUBCHEM_IUPAC_CAS_NAME>  (1) 
[5-(6-aminopurin-9-yl)-4-hydroxy-2-(phosphonooxymethyl)-3-oxolanyl] dihydrogen phosphate

>  <PUBCHEM_IUPAC_NAME_MARKUP>  (1) 
[5-(6-aminopurin-9-yl)-4-hydroxy-2-(phosphonooxymethyl)oxolan-3-yl] dihydrogen phosphate

>  <PUBCHEM_IUPAC_NAME>  (1) 
[5-(6-aminopurin-9-yl)-4-hydroxy-2-(phosphonooxymethyl)oxolan-3-yl] dihydrogen phosphate

>  <PUBCHEM_IUPAC_SYSTEMATIC_NAME>  (1) 
[5-(6-aminopurin-9-yl)-4-oxidanyl-2-(phosphonooxymethyl)oxolan-3-yl] dihydrogen phosphate

>  <PUBCHEM_IUPAC_TRADITIONAL_NAME>  (1) 
[5-adenin-9-yl-4-hydroxy-2-(phosphonooxymethyl)tetrahydrofuran-3-yl] dihydrogen phosphate

>  <PUBCHEM_IUPAC_INCHI>  (1) 
InChI=1S/C10H15N5O10P2/c11-8-5-9(13-2-12-8)15(3-14-5)10-6(16)7(25-27(20,21)22)4(24-10)1-23-26(17,18)19/h2-4,6-7,10,16H,1H2,(H2,11,12,13)(H2,17,18,19)(H2,20,21,22)

>  <PUBCHEM_IUPAC_INCHIKEY>  (1) 
WHTCPDAXWFLDIH-UHFFFAOYSA-N

>  <PUBCHEM_XLOGP3>  (1) 
-4.6

>  <PUBCHEM_EXACT_MASS>  (1) 
427.029416

>  <PUBCHEM_MOLECULAR_FORMULA>  (1) 
C10H15N5O10P2

>  <PUBCHEM_MOLECULAR_WEIGHT>  (1) 
427.2

>  <PUBCHEM_OPENEYE_CAN_SMILES>  (1) 
C1=NC(=C2C(=N1)N(C=N2)C3C(C(C(O3)COP(=O)(O)O)OP(=O)(O)O)O)N

>  <PUBCHEM_OPENEYE_ISO_SMILES>  (1) 
C1=NC(=C2C(=N1)N(C=N2)C3C(C(C(O3)COP(=O)(O)O)OP(=O)(O)O)O)N

>  <PUBCHEM_CACTVS_TPSA>  (1) 
233

>  <PUBCHEM_MONOISOTOPIC_WEIGHT>  (1) 
427.029416

>  <PUBCHEM_TOTAL_CHARGE>  (1) 
0

>  <PUBCHEM_HEAVY_ATOM_COUNT>  (1) 
27

>  <PUBCHEM_ATOM_DEF_STEREO_COUNT>  (1) 
0

>  <PUBCHEM_ATOM_UDEF_STEREO_COUNT>  (1) 
4

>  <PUBCHEM_BOND_DEF_STEREO_COUNT>  (1) 
0

>  <PUBCHEM_BOND_UDEF_STEREO_COUNT>  (1) 
0

>  <PUBCHEM_ISOTOPIC_ATOM_COUNT>  (1) 
0

>  <PUBCHEM_COMPONENT_COUNT>  (1) 
1

>  <PUBCHEM_CACTVS_TAUTO_COUNT>  (1) 
-1

>  <PUBCHEM_COORDINATE_TYPE>  (1) 
1
5
255

>  <PUBCHEM_BONDANNOTATIONS>  (1) 
21  13  3
13  23  8
13  24  8
14  24  8
14  25  8
15  23  8
15  27  8
16  26  8
16  27  8
20  22  3
23  25  8
25  26  8
18  4  3
19  5  3

$$$$
