737
     RDKit          2D

 20 20  0  0  1  0  0  0  0  0999 V2000
    2.0512   -2.7342    0.0000 P   0  0  0  0  0  0  0  0  0  0  0  0
   -4.1005   -0.5190    0.0000 P   0  0  0  0  0  0  0  0  0  0  0  0
    0.3906   -0.2357    0.0000 O   0  0  0  0  0  0  0  0  0  0  0  0
   -0.6032    3.6065    0.0000 O   0  0  0  0  0  0  0  0  0  0  0  0
    2.3908    3.7953    0.0000 O   0  0  0  0  0  0  0  0  0  0  0  0
    2.7179   -1.3905    0.0000 O   0  0  0  0  0  0  0  0  0  0  0  0
    4.0514    1.2968    0.0000 O   0  0  0  0  0  0  0  0  0  0  0  0
   -2.6034   -0.4245    0.0000 O   0  0  0  0  0  0  0  0  0  0  0  0
    0.7075   -2.0674    0.0000 O   0  0  0  0  0  0  0  0  0  0  0  0
    1.3845   -4.0779    0.0000 O   0  0  0  0  0  0  0  0  0  0  0  0
    3.3949   -3.4009    0.0000 O   0  0  0  0  0  0  0  0  0  0  0  0
   -4.1949    0.9781    0.0000 O   0  0  0  0  0  0  0  0  0  0  0  0
   -5.5975   -0.6134    0.0000 O   0  0  0  0  0  0  0  0  0  0  0  0
   -4.0060   -2.0160    0.0000 O   0  0  0  0  0  0  0  0  0  0  0  0
    0.2271    2.3572    0.0000 C   0  0  0  0  0  0  0  0  0  0  0  0
    1.7241    2.4517    0.0000 C   0  0  0  0  0  0  0  0  0  0  0  0
   -0.4397    1.0136    0.0000 C   0  0  0  0  0  0  0  0  0  0  0  0
    2.5544    1.2024    0.0000 C   0  0  0  0  0  0  0  0  0  0  0  0
    1.8876   -0.1413    0.0000 C   0  0  0  0  0  0  0  0  0  0  0  0
   -1.9367    0.9191    0.0000 C   0  0  0  0  0  0  0  0  0  0  0  0
  1  6  1  0
  1  9  1  0
  1 10  1  0
  1 11  2  0
  2  8  1  0
  2 12  1  0
  2 13  1  0
  2 14  2  0
  3 17  1  0
  3 19  1  0
  4 15  1  0
  5 16  1  0
  6 19  1  0
  7 18  1  0
  8 20  1  0
 15 16  1  0
 15 17  1  0
 16 18  1  0
 17 20  1  0
 18 19  1  0
M  END
>  <PUBCHEM_COMPOUND_CID>  (1) 
737

>  <PUBCHEM_COMPOUND_CANONICALIZED>  (1) 
1

>  <PUBCHEM_CACTVS_COMPLEXITY>  (1) 
414

>  <PUBCHEM_CACTVS_HBOND_ACCEPTOR>  (1) 
12

>  <PUBCHEM_CACTVS_HBOND_DONOR>  (1) 
7

>  <PUBCHEM_CACTVS_ROTATABLE_BOND>  (1) 
5

>  <PUBCHEM_CACTVS_SUBSKEYS>  (1) 
AAADccBgPAMAAAAAAAAAAAAAAAAAAAAAAAAkAAAAAAAAAAAAAAAAGgAACCAACBSwgAMACAAABxAAQAAAAIAAAAAAAAAAAAAAAAAREAIAAAACQAAFAAAHAAHAYAQAAAAAAAAAAAAAAAAAAAAAAAAAAAAAAA==

>  <PUBCHEM_IUPAC_OPENEYE_NAME>  (1) 
[3,4,5-trihydroxy-6-(phosphonooxymethyl)tetrahydropyran-2-yl] dihydrogen phosphate

>  <PUBCHEM_IUPAC_CAS_NAME>  (1) 
[3,4,5-trihydroxy-6-(phosphonooxymethyl)-2-oxanyl] dihydrogen phosphate

>  <PUBCHEM_IUPAC_NAME_MARKUP>  (1) 
[3,4,5-trihydroxy-6-(phosphonooxymethyl)oxan-2-yl] dihydrogen phosphate

>  <PUBCHEM_IUPAC_NAME>  (1) 
[3,4,5-trihydroxy-6-(phosphonooxymethyl)oxan-2-yl] dihydrogen phosphate

>  <PUBCHEM_IUPAC_SYSTEMATIC_NAME>  (1) 
[3,4,5-tris(oxidanyl)-6-(phosphonooxymethyl)oxan-2-yl] dihydrogen phosphate

>  <PUBCHEM_IUPAC_TRADITIONAL_NAME>  (1) 
[3,4,5-trihydroxy-6-(phosphonooxymethyl)tetrahydropyran-2-yl] dihydrogen phosphate

>  <PUBCHEM_IUPAC_INCHI>  (1) 
InChI=1S/C6H14O12P2/c7-3-2(1-16-19(10,11)12)17-6(5(9)4(3)8)18-20(13,14)15/h2-9H,1H2,(H2,10,11,12)(H2,13,14,15)

>  <PUBCHEM_IUPAC_INCHIKEY>  (1) 
RWHOZGRAXYWRNX-UHFFFAOYSA-N

>  <PUBCHEM_XLOGP3_AA>  (1) 
-5.3

>  <PUBCHEM_EXACT_MASS>  (1) 
339.99605

>  <PUBCHEM_MOLECULAR_FORMULA>  (1) 
C6H14O12P2

>  <PUBCHEM_MOLECULAR_WEIGHT>  (1) 
340.12

>  <PUBCHEM_OPENEYE_CAN_SMILES>  (1) 
C(C1C(C(C(C(O1)OP(=O)(O)O)O)O)O)OP(=O)(O)O

>  <PUBCHEM_OPENEYE_ISO_SMILES>  (1) 
C(C1C(C(C(C(O1)OP(=O)(O)O)O)O)O)OP(=O)(O)O

>  <PUBCHEM_CACTVS_TPSA>  (1) 
203

>  <PUBCHEM_MONOISOTOPIC_WEIGHT>  (1) 
339.99605

>  <PUBCHEM_TOTAL_CHARGE>  (1) 
0

>  <PUBCHEM_HEAVY_ATOM_COUNT>  (1) 
20

>  <PUBCHEM_ATOM_DEF_STEREO_COUNT>  (1) 
0

>  <PUBCHEM_ATOM_UDEF_STEREO_COUNT>  (1) 
5

>  <PUBCHEM_BOND_DEF_STEREO_COUNT>  (1) 
0

>  <PUBCHEM_BOND_UDEF_STEREO_COUNT>  (1) 
0

>  <PUBCHEM_ISOTOPIC_ATOM_COUNT>  (1) 
0

>  <PUBCHEM_COMPONENT_COUNT>  (1) 
1

>  <PUBCHEM_CACTVS_TAUTO_COUNT>  (1) 
-1

>  <PUBCHEM_COORDINATE_TYPE>  (1) 
1
5
255

>  <PUBCHEM_BONDANNOTATIONS>  (1) 
17  20  3
15  4  3
16  5  3
19  6  3
18  7  3

$$$$
