740
     RDKit          2D

 16 16  0  0  1  0  0  0  0  0999 V2000
    3.0175    0.0192    0.0000 P   0  0  0  0  0  0  0  0  0  0  0  0
    0.1333   -0.8064    0.0000 O   0  0  0  0  0  0  0  0  0  0  0  0
   -3.1022    2.3212    0.0000 O   0  0  0  0  0  0  0  0  0  0  0  0
    1.9390    1.0617    0.0000 O   0  0  0  0  0  0  0  0  0  0  0  0
   -3.8294   -0.5894    0.0000 O   0  0  0  0  0  0  0  0  0  0  0  0
   -0.5939   -3.7169    0.0000 O   0  0  0  0  0  0  0  0  0  0  0  0
    1.9750   -1.0593    0.0000 O   0  0  0  0  0  0  0  0  0  0  0  0
    4.0960   -1.0233    0.0000 O   0  0  0  0  0  0  0  0  0  0  0  0
    4.0600    1.0977    0.0000 O   0  0  0  0  0  0  0  0  0  0  0  0
   -0.2181    3.1467    0.0000 N   0  0  0  0  0  0  0  0  0  0  0  0
   -2.0237    1.2787    0.0000 C   0  0  0  0  0  0  0  0  0  0  0  0
   -0.5816    1.6914    0.0000 C   0  0  0  0  0  0  0  0  0  0  0  0
   -2.3873   -0.1766    0.0000 C   0  0  0  0  0  0  0  0  0  0  0  0
   -1.3088   -1.2191    0.0000 C   0  0  0  0  0  0  0  0  0  0  0  0
    0.4969    0.6489    0.0000 C   0  0  0  0  0  0  0  0  0  0  0  0
   -1.6724   -2.6744    0.0000 C   0  0  0  0  0  0  0  0  0  0  0  0
  1  4  1  0
  1  7  1  0
  1  8  1  0
  1  9  2  0
  2 14  1  0
  2 15  1  0
  3 11  1  0
  4 15  1  0
  5 13  1  0
  6 16  1  0
 10 12  1  0
 11 12  1  0
 11 13  1  0
 12 15  1  0
 13 14  1  0
 14 16  1  0
M  END
>  <PUBCHEM_COMPOUND_CID>  (1) 
740

>  <PUBCHEM_COMPOUND_CANONICALIZED>  (1) 
1

>  <PUBCHEM_CACTVS_COMPLEXITY>  (1) 
282

>  <PUBCHEM_CACTVS_HBOND_ACCEPTOR>  (1) 
9

>  <PUBCHEM_CACTVS_HBOND_DONOR>  (1) 
6

>  <PUBCHEM_CACTVS_ROTATABLE_BOND>  (1) 
3

>  <PUBCHEM_CACTVS_SUBSKEYS>  (1) 
AAADccBiPAIAAAAAAAAAAAAAAAAAAAAAAAAkAAAAAAAAAAAAAAAAHgAQCCAACDzxgAcACABABxAAQAAAAIAAAAAAAAAAAIAAAAATEAIAgAADQAAHEAAHAAHwcAUAAAAAAAAAAAAAAAAAAAAAAAAAAAAAAA==

>  <PUBCHEM_IUPAC_OPENEYE_NAME>  (1) 
[3-amino-4,5-dihydroxy-6-(hydroxymethyl)tetrahydropyran-2-yl] dihydrogen phosphate

>  <PUBCHEM_IUPAC_CAS_NAME>  (1) 
[3-amino-4,5-dihydroxy-6-(hydroxymethyl)-2-oxanyl] dihydrogen phosphate

>  <PUBCHEM_IUPAC_NAME_MARKUP>  (1) 
[3-amino-4,5-dihydroxy-6-(hydroxymethyl)oxan-2-yl] dihydrogen phosphate

>  <PUBCHEM_IUPAC_NAME>  (1) 
[3-amino-4,5-dihydroxy-6-(hydroxymethyl)oxan-2-yl] dihydrogen phosphate

>  <PUBCHEM_IUPAC_SYSTEMATIC_NAME>  (1) 
[3-azanyl-6-(hydroxymethyl)-4,5-bis(oxidanyl)oxan-2-yl] dihydrogen phosphate

>  <PUBCHEM_IUPAC_TRADITIONAL_NAME>  (1) 
(3-amino-4,5-dihydroxy-6-methylol-tetrahydropyran-2-yl) dihydrogen phosphate

>  <PUBCHEM_IUPAC_INCHI>  (1) 
InChI=1S/C6H14NO8P/c7-3-5(10)4(9)2(1-8)14-6(3)15-16(11,12)13/h2-6,8-10H,1,7H2,(H2,11,12,13)

>  <PUBCHEM_IUPAC_INCHIKEY>  (1) 
YMJBYRVFGYXULK-UHFFFAOYSA-N

>  <PUBCHEM_XLOGP3_AA>  (1) 
-6.2

>  <PUBCHEM_EXACT_MASS>  (1) 
259.045703

>  <PUBCHEM_MOLECULAR_FORMULA>  (1) 
C6H14NO8P

>  <PUBCHEM_MOLECULAR_WEIGHT>  (1) 
259.15

>  <PUBCHEM_OPENEYE_CAN_SMILES>  (1) 
C(C1C(C(C(C(O1)OP(=O)(O)O)N)O)O)O

>  <PUBCHEM_OPENEYE_ISO_SMILES>  (1) 
C(C1C(C(C(C(O1)OP(=O)(O)O)N)O)O)O

>  <PUBCHEM_CACTVS_TPSA>  (1) 
163

>  <PUBCHEM_MONOISOTOPIC_WEIGHT>  (1) 
259.045703

>  <PUBCHEM_TOTAL_CHARGE>  (1) 
0

>  <PUBCHEM_HEAVY_ATOM_COUNT>  (1) 
16

>  <PUBCHEM_ATOM_DEF_STEREO_COUNT>  (1) 
0

>  <PUBCHEM_ATOM_UDEF_STEREO_COUNT>  (1) 
5

>  <PUBCHEM_BOND_DEF_STEREO_COUNT>  (1) 
0

>  <PUBCHEM_BOND_UDEF_STEREO_COUNT>  (1) 
0

>  <PUBCHEM_ISOTOPIC_ATOM_COUNT>  (1) 
0

>  <PUBCHEM_COMPONENT_COUNT>  (1) 
1

>  <PUBCHEM_CACTVS_TAUTO_COUNT>  (1) 
-1

>  <PUBCHEM_COORDINATE_TYPE>  (1) 
1
5
255

>  <PUBCHEM_BONDANNOTATIONS>  (1) 
12  10  3
14  16  3
11  3  3
15  4  3
13  5  3

$$$$
