744
     RDKit          2D

 56 58  0  0  1  0  0  0  0  0999 V2000
  -13.7088    0.0515    0.0000 S   0  0  0  0  0  0  0  0  0  0  0  0
    4.7153   -1.7505    0.0000 P   0  0  0  0  0  0  0  0  0  0  0  0
    4.4389    3.2784    0.0000 P   0  0  0  0  0  0  0  0  0  0  0  0
    1.8410    3.2459    0.0000 P   0  0  0  0  0  0  0  0  0  0  0  0
    8.4368    0.9382    0.0000 O   0  0  0  0  0  0  0  0  0  0  0  0
    6.1475   -2.1962    0.0000 O   0  0  0  0  0  0  0  0  0  0  0  0
    9.3478   -2.8348    0.0000 O   0  0  0  0  0  0  0  0  0  0  0  0
    5.7472    2.5446    0.0000 O   0  0  0  0  0  0  0  0  0  0  0  0
    5.1609   -0.3183    0.0000 O   0  0  0  0  0  0  0  0  0  0  0  0
    3.2830   -1.3049    0.0000 O   0  0  0  0  0  0  0  0  0  0  0  0
    3.1306    4.0121    0.0000 O   0  0  0  0  0  0  0  0  0  0  0  0
    0.5514    2.4798    0.0000 O   0  0  0  0  0  0  0  0  0  0  0  0
    4.2696   -3.1828    0.0000 O   0  0  0  0  0  0  0  0  0  0  0  0
    5.1726    4.5867    0.0000 O   0  0  0  0  0  0  0  0  0  0  0  0
   -1.9903   -2.0523    0.0000 O   0  0  0  0  0  0  0  0  0  0  0  0
    3.7052    1.9701    0.0000 O   0  0  0  0  0  0  0  0  0  0  0  0
    2.6072    1.9563    0.0000 O   0  0  0  0  0  0  0  0  0  0  0  0
    1.0748    4.5355    0.0000 O   0  0  0  0  0  0  0  0  0  0  0  0
   -3.3360    1.6812    0.0000 O   0  0  0  0  0  0  0  0  0  0  0  0
   -8.5318    1.6163    0.0000 O   0  0  0  0  0  0  0  0  0  0  0  0
  -14.9796   -2.2145    0.0000 O   0  0  0  0  0  0  0  0  0  0  0  0
  -21.5024   -0.0458    0.0000 O   0  0  0  0  0  0  0  0  0  0  0  0
  -20.1754   -2.2794    0.0000 O   0  0  0  0  0  0  0  0  0  0  0  0
   10.9440    0.0115    0.0000 N   0  0  0  0  0  0  0  0  0  0  0  0
   13.1488    1.0263    0.0000 N   0  0  0  0  0  0  0  0  0  0  0  0
   11.8234   -2.5842    0.0000 N   0  0  0  0  0  0  0  0  0  0  0  0
   14.4105   -2.8235    0.0000 N   0  0  0  0  0  0  0  0  0  0  0  0
   15.9112   -0.7027    0.0000 N   0  0  0  0  0  0  0  0  0  0  0  0
   -4.6069   -0.5849    0.0000 N   0  0  0  0  0  0  0  0  0  0  0  0
   -9.8026   -0.6498    0.0000 N   0  0  0  0  0  0  0  0  0  0  0  0
    7.2496   -1.1787    0.0000 C   0  0  0  0  0  0  0  0  0  0  0  0
    8.7206   -1.4722    0.0000 C   0  0  0  0  0  0  0  0  0  0  0  0
    7.0742    0.3110    0.0000 C   0  0  0  0  0  0  0  0  0  0  0  0
    9.4543   -0.1639    0.0000 C   0  0  0  0  0  0  0  0  0  0  0  0
    5.7659    1.0448    0.0000 C   0  0  0  0  0  0  0  0  0  0  0  0
   11.9616   -1.0906    0.0000 C   0  0  0  0  0  0  0  0  0  0  0  0
   11.6778    1.3198    0.0000 C   0  0  0  0  0  0  0  0  0  0  0  0
   13.3242   -0.4634    0.0000 C   0  0  0  0  0  0  0  0  0  0  0  0
   -0.7194    0.2137    0.0000 C   0  0  0  0  0  0  0  0  0  0  0  0
   -2.0090   -0.5524    0.0000 C   0  0  0  0  0  0  0  0  0  0  0  0
    0.5702    0.9799    0.0000 C   0  0  0  0  0  0  0  0  0  0  0  0
   14.5486   -1.3299    0.0000 C   0  0  0  0  0  0  0  0  0  0  0  0
   -1.4856    1.5033    0.0000 C   0  0  0  0  0  0  0  0  0  0  0  0
    0.0467   -1.0759    0.0000 C   0  0  0  0  0  0  0  0  0  0  0  0
   13.0479   -3.4507    0.0000 C   0  0  0  0  0  0  0  0  0  0  0  0
   -3.3173    0.1813    0.0000 C   0  0  0  0  0  0  0  0  0  0  0  0
   -5.9152    0.1488    0.0000 C   0  0  0  0  0  0  0  0  0  0  0  0
   -7.2047   -0.6173    0.0000 C   0  0  0  0  0  0  0  0  0  0  0  0
   -8.5130    0.1164    0.0000 C   0  0  0  0  0  0  0  0  0  0  0  0
  -11.1109    0.0840    0.0000 C   0  0  0  0  0  0  0  0  0  0  0  0
  -12.4005   -0.6822    0.0000 C   0  0  0  0  0  0  0  0  0  0  0  0
  -16.3067    0.0191    0.0000 C   0  0  0  0  0  0  0  0  0  0  0  0
  -17.5962   -0.7471    0.0000 C   0  0  0  0  0  0  0  0  0  0  0  0
  -14.9984   -0.7146    0.0000 C   0  0  0  0  0  0  0  0  0  0  0  0
  -18.9045   -0.0133    0.0000 C   0  0  0  0  0  0  0  0  0  0  0  0
  -20.1941   -0.7795    0.0000 C   0  0  0  0  0  0  0  0  0  0  0  0
  1 51  1  0
  1 54  1  0
  2  6  1  0
  2  9  1  0
  2 10  1  0
  2 13  2  0
  3  8  1  0
  3 11  1  0
  3 14  1  0
  3 16  2  0
  4 11  1  0
  4 12  1  0
  4 17  1  0
  4 18  2  0
  5 33  1  0
  5 34  1  0
  6 31  1  0
  7 32  1  0
  8 35  1  0
 12 41  1  0
 15 40  1  0
 19 46  2  0
 20 49  2  0
 21 54  2  0
 22 56  1  0
 23 56  2  0
 24 34  1  0
 24 36  1  0
 24 37  1  0
 25 37  2  0
 25 38  1  0
 26 36  1  0
 26 45  2  0
 27 42  2  0
 27 45  1  0
 28 42  1  0
 29 46  1  0
 29 47  1  0
 30 49  1  0
 30 50  1  0
 31 32  1  0
 31 33  1  0
 32 34  1  0
 33 35  1  0
 36 38  2  0
 38 42  1  0
 39 40  1  0
 39 41  1  0
 39 43  1  0
 39 44  1  0
 40 46  1  0
 47 48  1  0
 48 49  1  0
 50 51  1  0
 52 53  1  0
 52 54  1  0
 53 55  1  0
 55 56  1  0
M  END
>  <PUBCHEM_COMPOUND_CID>  (1) 
744

>  <PUBCHEM_COMPOUND_CANONICALIZED>  (1) 
1

>  <PUBCHEM_CACTVS_COMPLEXITY>  (1) 
1530

>  <PUBCHEM_CACTVS_HBOND_ACCEPTOR>  (1) 
24

>  <PUBCHEM_CACTVS_HBOND_DONOR>  (1) 
10

>  <PUBCHEM_CACTVS_ROTATABLE_BOND>  (1) 
24

>  <PUBCHEM_CACTVS_SUBSKEYS>  (1) 
AAADcfB7vgNAAAAAAAAAAAAAAAAAAWJAAAAsAAAAAAAAAFgB+AAAHgQQCCAADhzl1waH+L/MFxioQQfxfIKAgC0RELABUKFoVBCDWBpgyEAeRAgPFgLzACD6NgIJAAAAAAAAAAAAAAAAAAAAAAAAAAAAAA==

>  <PUBCHEM_IUPAC_OPENEYE_NAME>  (1) 
5-[2-[3-[[4-[[[5-(6-aminopurin-9-yl)-4-hydroxy-3-phosphonooxy-tetrahydrofuran-2-yl]methoxy-hydroxy-phosphoryl]oxy-hydroxy-phosphoryl]oxy-2-hydroxy-3,3-dimethyl-butanoyl]amino]propanoylamino]ethylsulfanyl]-5-oxo-pentanoic acid

>  <PUBCHEM_IUPAC_CAS_NAME>  (1) 
5-[2-[[3-[[4-[[[5-(6-aminopurin-9-yl)-4-hydroxy-3-phosphonooxy-2-oxolanyl]methoxy-hydroxyphosphoryl]oxy-hydroxyphosphoryl]oxy-2-hydroxy-3,3-dimethyl-1-oxobutyl]amino]-1-oxopropyl]amino]ethylthio]-5-oxopentanoic acid

>  <PUBCHEM_IUPAC_NAME_MARKUP>  (1) 
5-[2-[3-[[4-[[[5-(6-aminopurin-9-yl)-4-hydroxy-3-phosphonooxyoxolan-2-yl]methoxy-hydroxyphosphoryl]oxy-hydroxyphosphoryl]oxy-2-hydroxy-3,3-dimethylbutanoyl]amino]propanoylamino]ethylsulfanyl]-5-oxopentanoic acid

>  <PUBCHEM_IUPAC_NAME>  (1) 
5-[2-[3-[[4-[[[5-(6-aminopurin-9-yl)-4-hydroxy-3-phosphonooxyoxolan-2-yl]methoxy-hydroxyphosphoryl]oxy-hydroxyphosphoryl]oxy-2-hydroxy-3,3-dimethylbutanoyl]amino]propanoylamino]ethylsulfanyl]-5-oxopentanoic acid

>  <PUBCHEM_IUPAC_SYSTEMATIC_NAME>  (1) 
5-[2-[3-[[4-[[[5-(6-aminopurin-9-yl)-4-oxidanyl-3-phosphonooxy-oxolan-2-yl]methoxy-oxidanyl-phosphoryl]oxy-oxidanyl-phosphoryl]oxy-3,3-dimethyl-2-oxidanyl-butanoyl]amino]propanoylamino]ethylsulfanyl]-5-oxidanylidene-pentanoic acid

>  <PUBCHEM_IUPAC_TRADITIONAL_NAME>  (1) 
5-[2-[3-[[4-[[(5-adenin-9-yl-4-hydroxy-3-phosphonooxy-tetrahydrofuran-2-yl)methoxy-hydroxy-phosphoryl]oxy-hydroxy-phosphoryl]oxy-2-hydroxy-3,3-dimethyl-butanoyl]amino]propanoylamino]ethylthio]-5-keto-valeric acid

>  <PUBCHEM_IUPAC_INCHI>  (1) 
InChI=1S/C26H42N7O19P3S/c1-26(2,21(39)24(40)29-7-6-15(34)28-8-9-56-17(37)5-3-4-16(35)36)11-49-55(46,47)52-54(44,45)48-10-14-20(51-53(41,42)43)19(38)25(50-14)33-13-32-18-22(27)30-12-31-23(18)33/h12-14,19-21,25,38-39H,3-11H2,1-2H3,(H,28,34)(H,29,40)(H,35,36)(H,44,45)(H,46,47)(H2,27,30,31)(H2,41,42,43)

>  <PUBCHEM_IUPAC_INCHIKEY>  (1) 
SYKWLIJQEHRDNH-UHFFFAOYSA-N

>  <PUBCHEM_XLOGP3>  (1) 
-5.8

>  <PUBCHEM_EXACT_MASS>  (1) 
881.146904

>  <PUBCHEM_MOLECULAR_FORMULA>  (1) 
C26H42N7O19P3S

>  <PUBCHEM_MOLECULAR_WEIGHT>  (1) 
881.6

>  <PUBCHEM_OPENEYE_CAN_SMILES>  (1) 
CC(C)(COP(=O)(O)OP(=O)(O)OCC1C(C(C(O1)N2C=NC3=C(N=CN=C32)N)O)OP(=O)(O)O)C(C(=O)NCCC(=O)NCCSC(=O)CCCC(=O)O)O

>  <PUBCHEM_OPENEYE_ISO_SMILES>  (1) 
CC(C)(COP(=O)(O)OP(=O)(O)OCC1C(C(C(O1)N2C=NC3=C(N=CN=C32)N)O)OP(=O)(O)O)C(C(=O)NCCC(=O)NCCSC(=O)CCCC(=O)O)O

>  <PUBCHEM_CACTVS_TPSA>  (1) 
426

>  <PUBCHEM_MONOISOTOPIC_WEIGHT>  (1) 
881.146904

>  <PUBCHEM_TOTAL_CHARGE>  (1) 
0

>  <PUBCHEM_HEAVY_ATOM_COUNT>  (1) 
56

>  <PUBCHEM_ATOM_DEF_STEREO_COUNT>  (1) 
0

>  <PUBCHEM_ATOM_UDEF_STEREO_COUNT>  (1) 
5

>  <PUBCHEM_BOND_DEF_STEREO_COUNT>  (1) 
0

>  <PUBCHEM_BOND_UDEF_STEREO_COUNT>  (1) 
0

>  <PUBCHEM_ISOTOPIC_ATOM_COUNT>  (1) 
0

>  <PUBCHEM_COMPONENT_COUNT>  (1) 
1

>  <PUBCHEM_CACTVS_TAUTO_COUNT>  (1) 
-1

>  <PUBCHEM_COORDINATE_TYPE>  (1) 
1
5
255

>  <PUBCHEM_BONDANNOTATIONS>  (1) 
40  15  3
34  24  3
24  36  8
24  37  8
25  37  8
25  38  8
26  36  8
26  45  8
27  42  8
27  45  8
33  35  3
36  38  8
38  42  8
31  6  3
32  7  3

$$$$
