745
     RDKit          2D

 20 19  0  0  1  0  0  0  0  0999 V2000
   -2.6637    2.2496    0.0000 S   0  0  0  0  0  0  0  0  0  0  0  0
    1.2534    1.6116    0.0000 O   0  0  0  0  0  0  0  0  0  0  0  0
   -2.5347   -2.2486    0.0000 O   0  0  0  0  0  0  0  0  0  0  0  0
    7.8104   -0.4513    0.0000 O   0  0  0  0  0  0  0  0  0  0  0  0
    6.4474    1.7605    0.0000 O   0  0  0  0  0  0  0  0  0  0  0  0
   -7.7717   -0.8981    0.0000 O   0  0  0  0  0  0  0  0  0  0  0  0
   -6.5377    1.3882    0.0000 O   0  0  0  0  0  0  0  0  0  0  0  0
    0.0193   -0.6747    0.0000 N   0  0  0  0  0  0  0  0  0  0  0  0
    5.2564   -2.0252    0.0000 N   0  0  0  0  0  0  0  0  0  0  0  0
   -3.8977   -0.0367    0.0000 N   0  0  0  0  0  0  0  0  0  0  0  0
    3.8934    0.1867    0.0000 C   0  0  0  0  0  0  0  0  0  0  0  0
    2.6164   -0.6002    0.0000 C   0  0  0  0  0  0  0  0  0  0  0  0
   -1.3007    0.0377    0.0000 C   0  0  0  0  0  0  0  0  0  0  0  0
    5.2134   -0.5258    0.0000 C   0  0  0  0  0  0  0  0  0  0  0  0
    1.2964    0.1122    0.0000 C   0  0  0  0  0  0  0  0  0  0  0  0
   -1.3437    1.5371    0.0000 C   0  0  0  0  0  0  0  0  0  0  0  0
   -2.5777   -0.7492    0.0000 C   0  0  0  0  0  0  0  0  0  0  0  0
    6.4904    0.2612    0.0000 C   0  0  0  0  0  0  0  0  0  0  0  0
   -5.1747   -0.8237    0.0000 C   0  0  0  0  0  0  0  0  0  0  0  0
   -6.4947   -0.1112    0.0000 C   0  0  0  0  0  0  0  0  0  0  0  0
  1 16  1  0
  2 15  2  0
  3 17  2  0
  4 18  1  0
  5 18  2  0
  6 20  1  0
  7 20  2  0
  8 13  1  0
  8 15  1  0
  9 14  1  0
 10 17  1  0
 10 19  1  0
 11 12  1  0
 11 14  1  0
 12 15  1  0
 13 16  1  0
 13 17  1  0
 14 18  1  0
 19 20  1  0
M  END
>  <PUBCHEM_COMPOUND_CID>  (1) 
745

>  <PUBCHEM_COMPOUND_CANONICALIZED>  (1) 
1

>  <PUBCHEM_CACTVS_COMPLEXITY>  (1) 
389

>  <PUBCHEM_CACTVS_HBOND_ACCEPTOR>  (1) 
8

>  <PUBCHEM_CACTVS_HBOND_DONOR>  (1) 
6

>  <PUBCHEM_CACTVS_ROTATABLE_BOND>  (1) 
9

>  <PUBCHEM_CACTVS_SUBSKEYS>  (1) 
AAADceBzOABAAAAAAAAAAAAAAAAAAAAAAAAAAAAAAAAAAAAAAAAAHgQQCAAACCjFwASACALAAgQIAAGQGAAAAAAAAAAAAIGIAAACQBIAgCAUQAAEFgCQAACcFwIAAAAAAAAAAAAAAAAAAAAAAAAAAAAAAA==

>  <PUBCHEM_IUPAC_OPENEYE_NAME>  (1) 
2-amino-5-[[2-(carboxymethylamino)-2-oxo-1-(sulfanylmethyl)ethyl]amino]-5-oxo-pentanoic acid

>  <PUBCHEM_IUPAC_CAS_NAME>  (1) 
2-amino-5-[[1-(carboxymethylamino)-3-mercapto-1-oxopropan-2-yl]amino]-5-oxopentanoic acid

>  <PUBCHEM_IUPAC_NAME_MARKUP>  (1) 
2-amino-5-[[1-(carboxymethylamino)-1-oxo-3-sulfanylpropan-2-yl]amino]-5-oxopentanoic acid

>  <PUBCHEM_IUPAC_NAME>  (1) 
2-amino-5-[[1-(carboxymethylamino)-1-oxo-3-sulfanylpropan-2-yl]amino]-5-oxopentanoic acid

>  <PUBCHEM_IUPAC_SYSTEMATIC_NAME>  (1) 
2-azanyl-5-[[1-(2-hydroxy-2-oxoethylamino)-1-oxidanylidene-3-sulfanyl-propan-2-yl]amino]-5-oxidanylidene-pentanoic acid

>  <PUBCHEM_IUPAC_TRADITIONAL_NAME>  (1) 
2-amino-5-[[2-(carboxymethylamino)-2-keto-1-(mercaptomethyl)ethyl]amino]-5-keto-valeric acid

>  <PUBCHEM_IUPAC_INCHI>  (1) 
InChI=1S/C10H17N3O6S/c11-5(10(18)19)1-2-7(14)13-6(4-20)9(17)12-3-8(15)16/h5-6,20H,1-4,11H2,(H,12,17)(H,13,14)(H,15,16)(H,18,19)

>  <PUBCHEM_IUPAC_INCHIKEY>  (1) 
RWSXRVCMGQZWBV-UHFFFAOYSA-N

>  <PUBCHEM_XLOGP3_AA>  (1) 
-4.5

>  <PUBCHEM_EXACT_MASS>  (1) 
307.083806

>  <PUBCHEM_MOLECULAR_FORMULA>  (1) 
C10H17N3O6S

>  <PUBCHEM_MOLECULAR_WEIGHT>  (1) 
307.33

>  <PUBCHEM_OPENEYE_CAN_SMILES>  (1) 
C(CC(=O)NC(CS)C(=O)NCC(=O)O)C(C(=O)O)N

>  <PUBCHEM_OPENEYE_ISO_SMILES>  (1) 
C(CC(=O)NC(CS)C(=O)NCC(=O)O)C(C(=O)O)N

>  <PUBCHEM_CACTVS_TPSA>  (1) 
160

>  <PUBCHEM_MONOISOTOPIC_WEIGHT>  (1) 
307.083806

>  <PUBCHEM_TOTAL_CHARGE>  (1) 
0

>  <PUBCHEM_HEAVY_ATOM_COUNT>  (1) 
20

>  <PUBCHEM_ATOM_DEF_STEREO_COUNT>  (1) 
0

>  <PUBCHEM_ATOM_UDEF_STEREO_COUNT>  (1) 
2

>  <PUBCHEM_BOND_DEF_STEREO_COUNT>  (1) 
0

>  <PUBCHEM_BOND_UDEF_STEREO_COUNT>  (1) 
0

>  <PUBCHEM_ISOTOPIC_ATOM_COUNT>  (1) 
0

>  <PUBCHEM_COMPONENT_COUNT>  (1) 
1

>  <PUBCHEM_CACTVS_TAUTO_COUNT>  (1) 
-1

>  <PUBCHEM_COORDINATE_TYPE>  (1) 
1
5
255

>  <PUBCHEM_BONDANNOTATIONS>  (1) 
13  16  3
14  9  3

$$$$
