746
     RDKit          2D

 21 20  0  0  1  0  0  0  0  0999 V2000
   -2.5838    2.0095    0.0000 S   0  0  0  0  0  0  0  0  0  0  0  0
   -2.6629    3.5074    0.0000 S   0  0  0  0  0  0  0  0  0  0  0  0
    1.3474    1.4659    0.0000 O   0  0  0  0  0  0  0  0  0  0  0  0
   -2.3467   -2.4842    0.0000 O   0  0  0  0  0  0  0  0  0  0  0  0
    7.9521   -0.4388    0.0000 O   0  0  0  0  0  0  0  0  0  0  0  0
    6.5363    1.7397    0.0000 O   0  0  0  0  0  0  0  0  0  0  0  0
   -7.6147   -1.2601    0.0000 O   0  0  0  0  0  0  0  0  0  0  0  0
   -6.4360    1.0552    0.0000 O   0  0  0  0  0  0  0  0  0  0  0  0
    0.1687   -0.8494    0.0000 N   0  0  0  0  0  0  0  0  0  0  0  0
    5.4367   -2.0736    0.0000 N   0  0  0  0  0  0  0  0  0  0  0  0
   -3.7625   -0.3058    0.0000 N   0  0  0  0  0  0  0  0  0  0  0  0
    4.0209    0.1049    0.0000 C   0  0  0  0  0  0  0  0  0  0  0  0
   -1.1680   -0.1689    0.0000 C   0  0  0  0  0  0  0  0  0  0  0  0
    2.7632   -0.7125    0.0000 C   0  0  0  0  0  0  0  0  0  0  0  0
    5.3576   -0.5757    0.0000 C   0  0  0  0  0  0  0  0  0  0  0  0
    1.4264   -0.0320    0.0000 C   0  0  0  0  0  0  0  0  0  0  0  0
   -1.2471    1.3290    0.0000 C   0  0  0  0  0  0  0  0  0  0  0  0
   -2.4258   -0.9863    0.0000 C   0  0  0  0  0  0  0  0  0  0  0  0
    6.6154    0.2417    0.0000 C   0  0  0  0  0  0  0  0  0  0  0  0
   -5.0202   -1.1232    0.0000 C   0  0  0  0  0  0  0  0  0  0  0  0
   -6.3570   -0.4427    0.0000 C   0  0  0  0  0  0  0  0  0  0  0  0
  1  2  1  0
  1 17  1  0
  3 16  2  0
  4 18  2  0
  5 19  1  0
  6 19  2  0
  7 21  1  0
  8 21  2  0
  9 13  1  0
  9 16  1  0
 10 15  1  0
 11 18  1  0
 11 20  1  0
 12 14  1  0
 12 15  1  0
 13 17  1  0
 13 18  1  0
 14 16  1  0
 15 19  1  0
 20 21  1  0
M  END
>  <PUBCHEM_COMPOUND_CID>  (1) 
746

>  <PUBCHEM_COMPOUND_CANONICALIZED>  (1) 
1

>  <PUBCHEM_CACTVS_COMPLEXITY>  (1) 
406

>  <PUBCHEM_CACTVS_HBOND_ACCEPTOR>  (1) 
9

>  <PUBCHEM_CACTVS_HBOND_DONOR>  (1) 
6

>  <PUBCHEM_CACTVS_ROTATABLE_BOND>  (1) 
10

>  <PUBCHEM_CACTVS_SUBSKEYS>  (1) 
AAADceBzOABgAAAAAAAAAAAAAAAAAAAAAAAAAAAAAAAAAAAAAAAAHgQQCAAACCjFwASACALAAgAIAAGQGAAAAAAAAAAAAIGIAAACQBIAgCAUQAAEFgCQAACcFwIAAAAAAAAAAAAAAAAAAAAAAAAAAAAAAA==

>  <PUBCHEM_IUPAC_OPENEYE_NAME>  (1) 
2-amino-5-[[2-(carboxymethylamino)-1-(disulfanylmethyl)-2-oxo-ethyl]amino]-5-oxo-pentanoic acid

>  <PUBCHEM_IUPAC_CAS_NAME>  (1) 
2-amino-5-[[1-(carboxymethylamino)-3-(disulfanyl)-1-oxopropan-2-yl]amino]-5-oxopentanoic acid

>  <PUBCHEM_IUPAC_NAME_MARKUP>  (1) 
2-amino-5-[[1-(carboxymethylamino)-3-(disulfanyl)-1-oxopropan-2-yl]amino]-5-oxopentanoic acid

>  <PUBCHEM_IUPAC_NAME>  (1) 
2-amino-5-[[1-(carboxymethylamino)-3-(disulfanyl)-1-oxopropan-2-yl]amino]-5-oxopentanoic acid

>  <PUBCHEM_IUPAC_SYSTEMATIC_NAME>  (1) 
2-azanyl-5-[[3-(disulfanyl)-1-(2-hydroxy-2-oxoethylamino)-1-oxidanylidene-propan-2-yl]amino]-5-oxidanylidene-pentanoic acid

>  <PUBCHEM_IUPAC_TRADITIONAL_NAME>  (1) 
2-amino-5-[[2-(carboxymethylamino)-1-(disulfanylmethyl)-2-keto-ethyl]amino]-5-keto-valeric acid

>  <PUBCHEM_IUPAC_INCHI>  (1) 
InChI=1S/C10H17N3O6S2/c11-5(10(18)19)1-2-7(14)13-6(4-21-20)9(17)12-3-8(15)16/h5-6,20H,1-4,11H2,(H,12,17)(H,13,14)(H,15,16)(H,18,19)

>  <PUBCHEM_IUPAC_INCHIKEY>  (1) 
QBOLVLBSUGJHGB-UHFFFAOYSA-N

>  <PUBCHEM_XLOGP3_AA>  (1) 
-4.1

>  <PUBCHEM_EXACT_MASS>  (1) 
339.055878

>  <PUBCHEM_MOLECULAR_FORMULA>  (1) 
C10H17N3O6S2

>  <PUBCHEM_MOLECULAR_WEIGHT>  (1) 
339.4

>  <PUBCHEM_OPENEYE_CAN_SMILES>  (1) 
C(CC(=O)NC(CSS)C(=O)NCC(=O)O)C(C(=O)O)N

>  <PUBCHEM_OPENEYE_ISO_SMILES>  (1) 
C(CC(=O)NC(CSS)C(=O)NCC(=O)O)C(C(=O)O)N

>  <PUBCHEM_CACTVS_TPSA>  (1) 
185

>  <PUBCHEM_MONOISOTOPIC_WEIGHT>  (1) 
339.055878

>  <PUBCHEM_TOTAL_CHARGE>  (1) 
0

>  <PUBCHEM_HEAVY_ATOM_COUNT>  (1) 
21

>  <PUBCHEM_ATOM_DEF_STEREO_COUNT>  (1) 
0

>  <PUBCHEM_ATOM_UDEF_STEREO_COUNT>  (1) 
2

>  <PUBCHEM_BOND_DEF_STEREO_COUNT>  (1) 
0

>  <PUBCHEM_BOND_UDEF_STEREO_COUNT>  (1) 
0

>  <PUBCHEM_ISOTOPIC_ATOM_COUNT>  (1) 
0

>  <PUBCHEM_COMPONENT_COUNT>  (1) 
1

>  <PUBCHEM_CACTVS_TAUTO_COUNT>  (1) 
-1

>  <PUBCHEM_COORDINATE_TYPE>  (1) 
1
5
255

>  <PUBCHEM_BONDANNOTATIONS>  (1) 
15  10  3
13  17  3

$$$$
