755
     RDKit          2D

 33 36  0  0  1  0  0  0  0  0999 V2000
   -1.2618   -0.5875    0.0000 O   0  0  0  0  0  0  0  0  0  0  0  0
    4.3891    3.3263    0.0000 O   0  0  0  0  0  0  0  0  0  0  0  0
    7.5360   -3.8044    0.0000 O   0  0  0  0  0  0  0  0  0  0  0  0
   -4.0639   -1.6295    0.0000 O   0  0  0  0  0  0  0  0  0  0  0  0
   -9.1553   -3.4535    0.0000 O   0  0  0  0  0  0  0  0  0  0  0  0
   -9.4184   -0.8688    0.0000 O   0  0  0  0  0  0  0  0  0  0  0  0
   -6.4339   -0.5650    0.0000 N   0  0  0  0  0  0  0  0  0  0  0  0
    0.2722    1.5094    0.0000 C   0  0  0  0  0  0  0  0  0  0  0  0
    1.6445    2.1150    0.0000 C   0  0  0  0  0  0  0  0  0  0  0  0
    2.8552    1.2294    0.0000 C   0  0  0  0  0  0  0  0  0  0  0  0
    2.6935   -0.2619    0.0000 C   0  0  0  0  0  0  0  0  0  0  0  0
    3.9041   -1.1475    0.0000 C   0  0  0  0  0  0  0  0  0  0  0  0
   -0.7278    2.6274    0.0000 C   0  0  0  0  0  0  0  0  0  0  0  0
    0.1105    0.0181    0.0000 C   0  0  0  0  0  0  0  0  0  0  0  0
    1.3212   -0.8675    0.0000 C   0  0  0  0  0  0  0  0  0  0  0  0
    5.2764   -0.5419    0.0000 C   0  0  0  0  0  0  0  0  0  0  0  0
    1.4926    3.6073    0.0000 C   0  0  0  0  0  0  0  0  0  0  0  0
    4.2275    1.8350    0.0000 C   0  0  0  0  0  0  0  0  0  0  0  0
    0.0264    3.9240    0.0000 C   0  0  0  0  0  0  0  0  0  0  0  0
    5.4381    0.9494    0.0000 C   0  0  0  0  0  0  0  0  0  0  0  0
    3.7425   -2.6388    0.0000 C   0  0  0  0  0  0  0  0  0  0  0  0
   -1.1559    1.0505    0.0000 C   0  0  0  0  0  0  0  0  0  0  0  0
   -2.2201    2.4755    0.0000 C   0  0  0  0  0  0  0  0  0  0  0  0
    6.4871   -1.4275    0.0000 C   0  0  0  0  0  0  0  0  0  0  0  0
    2.5318   -1.7531    0.0000 C   0  0  0  0  0  0  0  0  0  0  0  0
    4.9531   -3.5244    0.0000 C   0  0  0  0  0  0  0  0  0  0  0  0
    6.3254   -2.9188    0.0000 C   0  0  0  0  0  0  0  0  0  0  0  0
   -2.8347    1.1072    0.0000 C   0  0  0  0  0  0  0  0  0  0  0  0
   -3.0978    3.6919    0.0000 C   0  0  0  0  0  0  0  0  0  0  0  0
   -4.3270    0.9552    0.0000 C   0  0  0  0  0  0  0  0  0  0  0  0
   -4.9416   -0.4131    0.0000 C   0  0  0  0  0  0  0  0  0  0  0  0
   -7.0484   -1.9333    0.0000 C   0  0  0  0  0  0  0  0  0  0  0  0
   -8.5407   -2.0852    0.0000 C   0  0  0  0  0  0  0  0  0  0  0  0
  1 14  1  0
  2 18  1  0
  3 27  1  0
  4 31  2  0
  5 33  1  0
  6 33  2  0
  7 31  1  0
  7 32  1  0
  8  9  1  0
  8 13  1  0
  8 14  1  0
  8 22  1  0
  9 10  1  0
  9 17  1  0
 10 11  1  0
 10 18  1  0
 11 12  1  0
 11 15  1  0
 12 16  1  0
 12 21  1  0
 12 25  1  0
 13 19  1  0
 13 23  1  0
 14 15  1  0
 16 20  1  0
 16 24  1  0
 17 19  1  0
 18 20  1  0
 21 26  1  0
 23 28  1  0
 23 29  1  0
 24 27  1  0
 26 27  1  0
 28 30  1  0
 30 31  1  0
 32 33  1  0
M  END
>  <PUBCHEM_COMPOUND_CID>  (1) 
755

>  <PUBCHEM_COMPOUND_CANONICALIZED>  (1) 
1

>  <PUBCHEM_CACTVS_COMPLEXITY>  (1) 
759

>  <PUBCHEM_CACTVS_HBOND_ACCEPTOR>  (1) 
6

>  <PUBCHEM_CACTVS_HBOND_DONOR>  (1) 
5

>  <PUBCHEM_CACTVS_ROTATABLE_BOND>  (1) 
6

>  <PUBCHEM_CACTVS_SUBSKEYS>  (1) 
AAADcfB6OAAAAAAAAAAAAAAAAAAAAYAAAAAwYMAAAAAAAGDAAAAAHgAQCAAADxThgAYCCALAAgAIAAGQGAAAAAAAAAAAAIGIAAACEBIAgCAEQAAEFgCQAAGY6PSPgAAAAAAAAADAAAYAADAAAQAACAAAAA==

>  <PUBCHEM_IUPAC_OPENEYE_NAME>  (1) 
2-[4-(3,7,12-trihydroxy-10,13-dimethyl-2,3,4,5,6,7,8,9,11,12,14,15,16,17-tetradecahydro-1H-cyclopenta[a]phenanthren-17-yl)pentanoylamino]acetic acid

>  <PUBCHEM_IUPAC_CAS_NAME>  (1) 
2-[[1-oxo-4-(3,7,12-trihydroxy-10,13-dimethyl-2,3,4,5,6,7,8,9,11,12,14,15,16,17-tetradecahydro-1H-cyclopenta[a]phenanthren-17-yl)pentyl]amino]acetic acid

>  <PUBCHEM_IUPAC_NAME_MARKUP>  (1) 
2-[4-(3,7,12-trihydroxy-10,13-dimethyl-2,3,4,5,6,7,8,9,11,12,14,15,16,17-tetradecahydro-1<I>H</I>-cyclopenta[a]phenanthren-17-yl)pentanoylamino]acetic acid

>  <PUBCHEM_IUPAC_NAME>  (1) 
2-[4-(3,7,12-trihydroxy-10,13-dimethyl-2,3,4,5,6,7,8,9,11,12,14,15,16,17-tetradecahydro-1H-cyclopenta[a]phenanthren-17-yl)pentanoylamino]acetic acid

>  <PUBCHEM_IUPAC_SYSTEMATIC_NAME>  (1) 
2-[4-[10,13-dimethyl-3,7,12-tris(oxidanyl)-2,3,4,5,6,7,8,9,11,12,14,15,16,17-tetradecahydro-1H-cyclopenta[a]phenanthren-17-yl]pentanoylamino]ethanoic acid

>  <PUBCHEM_IUPAC_TRADITIONAL_NAME>  (1) 
2-[4-(3,7,12-trihydroxy-10,13-dimethyl-2,3,4,5,6,7,8,9,11,12,14,15,16,17-tetradecahydro-1H-cyclopenta[a]phenanthren-17-yl)pentanoylamino]acetic acid

>  <PUBCHEM_IUPAC_INCHI>  (1) 
InChI=1S/C26H43NO6/c1-14(4-7-22(31)27-13-23(32)33)17-5-6-18-24-19(12-21(30)26(17,18)3)25(2)9-8-16(28)10-15(25)11-20(24)29/h14-21,24,28-30H,4-13H2,1-3H3,(H,27,31)(H,32,33)

>  <PUBCHEM_IUPAC_INCHIKEY>  (1) 
RFDAIACWWDREDC-UHFFFAOYSA-N

>  <PUBCHEM_XLOGP3_AA>  (1) 
2.9

>  <PUBCHEM_EXACT_MASS>  (1) 
465.309038

>  <PUBCHEM_MOLECULAR_FORMULA>  (1) 
C26H43NO6

>  <PUBCHEM_MOLECULAR_WEIGHT>  (1) 
465.6

>  <PUBCHEM_OPENEYE_CAN_SMILES>  (1) 
CC(CCC(=O)NCC(=O)O)C1CCC2C1(C(CC3C2C(CC4C3(CCC(C4)O)C)O)O)C

>  <PUBCHEM_OPENEYE_ISO_SMILES>  (1) 
CC(CCC(=O)NCC(=O)O)C1CCC2C1(C(CC3C2C(CC4C3(CCC(C4)O)C)O)O)C

>  <PUBCHEM_CACTVS_TPSA>  (1) 
127

>  <PUBCHEM_MONOISOTOPIC_WEIGHT>  (1) 
465.309038

>  <PUBCHEM_TOTAL_CHARGE>  (1) 
0

>  <PUBCHEM_HEAVY_ATOM_COUNT>  (1) 
33

>  <PUBCHEM_ATOM_DEF_STEREO_COUNT>  (1) 
0

>  <PUBCHEM_ATOM_UDEF_STEREO_COUNT>  (1) 
11

>  <PUBCHEM_BOND_DEF_STEREO_COUNT>  (1) 
0

>  <PUBCHEM_BOND_UDEF_STEREO_COUNT>  (1) 
0

>  <PUBCHEM_ISOTOPIC_ATOM_COUNT>  (1) 
0

>  <PUBCHEM_COMPONENT_COUNT>  (1) 
1

>  <PUBCHEM_CACTVS_TAUTO_COUNT>  (1) 
-1

>  <PUBCHEM_COORDINATE_TYPE>  (1) 
1
5
255

>  <PUBCHEM_BONDANNOTATIONS>  (1) 
14  1  3
10  18  3
11  15  3
12  25  3
13  19  3
16  24  3
18  2  3
23  29  3
27  3  3
8  22  3
9  17  3

$$$$
