763
     RDKit          2D

  8  7  0  0  0  0  0  0  0  0999 V2000
    3.1182   -0.9820    0.0000 O   0  0  0  0  0  0  0  0  0  0  0  0
    2.2678    1.4730    0.0000 O   0  0  0  0  0  0  0  0  0  0  0  0
   -0.5669    0.4910    0.0000 N   0  0  0  0  0  0  0  0  0  0  0  0
   -3.1182    0.9820    0.0000 N   0  0  0  0  0  0  0  0  0  0  0  0
   -2.2678   -1.4730    0.0000 N   0  0  0  0  0  0  0  0  0  0  0  0
    0.5669   -0.4910    0.0000 C   0  0  0  0  0  0  0  0  0  0  0  0
   -1.9843   -0.0000    0.0000 C   0  0  0  0  0  0  0  0  0  0  0  0
    1.9843    0.0000    0.0000 C   0  0  0  0  0  0  0  0  0  0  0  0
  1  8  1  0
  2  8  2  0
  3  6  1  0
  3  7  2  3
  4  7  1  0
  5  7  1  0
  6  8  1  0
M  END
>  <PUBCHEM_COMPOUND_CID>  (1) 
763

>  <PUBCHEM_COMPOUND_CANONICALIZED>  (1) 
1

>  <PUBCHEM_CACTVS_COMPLEXITY>  (1) 
116

>  <PUBCHEM_CACTVS_HBOND_ACCEPTOR>  (1) 
3

>  <PUBCHEM_CACTVS_HBOND_DONOR>  (1) 
3

>  <PUBCHEM_CACTVS_ROTATABLE_BOND>  (1) 
2

>  <PUBCHEM_CACTVS_SUBSKEYS>  (1) 
AAADcYBDMAAAAAAAAAAAAAAAAAAAAAAAAAAAAAAAAAAAAAAAAAAAHgAQCAAAAADBgAQBCAJAAgAoAACQLAAAAAEAAAAAAACAAAACAAAAAAAAAAAAAAAAAAAAAAAAAAAAAAAAAAAAAAAAAAAAAAAAAAAAAA==

>  <PUBCHEM_IUPAC_OPENEYE_NAME>  (1) 
2-guanidinoacetic acid

>  <PUBCHEM_IUPAC_CAS_NAME>  (1) 
2-(diaminomethylideneamino)acetic acid

>  <PUBCHEM_IUPAC_NAME_MARKUP>  (1) 
2-(diaminomethylideneamino)acetic acid

>  <PUBCHEM_IUPAC_NAME>  (1) 
2-(diaminomethylideneamino)acetic acid

>  <PUBCHEM_IUPAC_SYSTEMATIC_NAME>  (1) 
2-[bis(azanyl)methylideneamino]ethanoic acid

>  <PUBCHEM_IUPAC_TRADITIONAL_NAME>  (1) 
2-guanidinoacetic acid

>  <PUBCHEM_IUPAC_INCHI>  (1) 
InChI=1S/C3H7N3O2/c4-3(5)6-1-2(7)8/h1H2,(H,7,8)(H4,4,5,6)

>  <PUBCHEM_IUPAC_INCHIKEY>  (1) 
BPMFZUMJYQTVII-UHFFFAOYSA-N

>  <PUBCHEM_XLOGP3_AA>  (1) 
-1.6

>  <PUBCHEM_EXACT_MASS>  (1) 
117.053826

>  <PUBCHEM_MOLECULAR_FORMULA>  (1) 
C3H7N3O2

>  <PUBCHEM_MOLECULAR_WEIGHT>  (1) 
117.11

>  <PUBCHEM_OPENEYE_CAN_SMILES>  (1) 
C(C(=O)O)N=C(N)N

>  <PUBCHEM_OPENEYE_ISO_SMILES>  (1) 
C(C(=O)O)N=C(N)N

>  <PUBCHEM_CACTVS_TPSA>  (1) 
102

>  <PUBCHEM_MONOISOTOPIC_WEIGHT>  (1) 
117.053826

>  <PUBCHEM_TOTAL_CHARGE>  (1) 
0

>  <PUBCHEM_HEAVY_ATOM_COUNT>  (1) 
8

>  <PUBCHEM_ATOM_DEF_STEREO_COUNT>  (1) 
0

>  <PUBCHEM_ATOM_UDEF_STEREO_COUNT>  (1) 
0

>  <PUBCHEM_BOND_DEF_STEREO_COUNT>  (1) 
0

>  <PUBCHEM_BOND_UDEF_STEREO_COUNT>  (1) 
0

>  <PUBCHEM_ISOTOPIC_ATOM_COUNT>  (1) 
0

>  <PUBCHEM_COMPONENT_COUNT>  (1) 
1

>  <PUBCHEM_CACTVS_TAUTO_COUNT>  (1) 
-1

>  <PUBCHEM_COORDINATE_TYPE>  (1) 
1
5
255

$$$$
