765
     RDKit          2D

 20 22  0  0  1  0  0  0  0  0999 V2000
    1.7389    0.8585    0.0000 O   0  0  0  0  0  0  0  0  0  0  0  0
    2.4468   -2.9578    0.0000 O   0  0  0  0  0  0  0  0  0  0  0  0
    5.1079   -1.0689    0.0000 O   0  0  0  0  0  0  0  0  0  0  0  0
    3.5389    3.4226    0.0000 O   0  0  0  0  0  0  0  0  0  0  0  0
   -5.1855   -1.2269    0.0000 O   0  0  0  0  0  0  0  0  0  0  0  0
   -0.1720   -1.0107    0.0000 N   0  0  0  0  0  0  0  0  0  0  0  0
   -1.5160    1.3778    0.0000 N   0  0  0  0  0  0  0  0  0  0  0  0
   -2.1511   -2.4155    0.0000 N   0  0  0  0  0  0  0  0  0  0  0  0
   -4.1027    1.1347    0.0000 N   0  0  0  0  0  0  0  0  0  0  0  0
   -3.0198    3.4964    0.0000 N   0  0  0  0  0  0  0  0  0  0  0  0
    1.2597   -0.5629    0.0000 C   0  0  0  0  0  0  0  0  0  0  0  0
    2.4634   -1.4579    0.0000 C   0  0  0  0  0  0  0  0  0  0  0  0
    3.6866   -0.5897    0.0000 C   0  0  0  0  0  0  0  0  0  0  0  0
    3.2388    0.8419    0.0000 C   0  0  0  0  0  0  0  0  0  0  0  0
    4.1338    2.0457    0.0000 C   0  0  0  0  0  0  0  0  0  0  0  0
   -1.3757   -0.1156    0.0000 C   0  0  0  0  0  0  0  0  0  0  0  0
   -0.6512   -2.4320    0.0000 C   0  0  0  0  0  0  0  0  0  0  0  0
   -2.5989   -0.9839    0.0000 C   0  0  0  0  0  0  0  0  0  0  0  0
   -3.9624   -0.3587    0.0000 C   0  0  0  0  0  0  0  0  0  0  0  0
   -2.8795    2.0030    0.0000 C   0  0  0  0  0  0  0  0  0  0  0  0
  1 11  1  0
  1 14  1  0
  2 12  1  0
  3 13  1  0
  4 15  1  0
  5 19  2  0
  6 11  1  0
  6 16  1  0
  6 17  1  0
  7 16  1  0
  7 20  1  0
  8 17  2  0
  8 18  1  0
  9 19  1  0
  9 20  2  0
 10 20  1  0
 11 12  1  0
 12 13  1  0
 13 14  1  0
 14 15  1  0
 16 18  2  0
 18 19  1  0
M  END
>  <PUBCHEM_COMPOUND_CID>  (1) 
765

>  <PUBCHEM_COMPOUND_CANONICALIZED>  (1) 
1

>  <PUBCHEM_CACTVS_COMPLEXITY>  (1) 
446

>  <PUBCHEM_CACTVS_HBOND_ACCEPTOR>  (1) 
6

>  <PUBCHEM_CACTVS_HBOND_DONOR>  (1) 
5

>  <PUBCHEM_CACTVS_ROTATABLE_BOND>  (1) 
2

>  <PUBCHEM_CACTVS_SUBSKEYS>  (1) 
AAADccBzuAAAAAAAAAAAAAAAAAAAAWJAAAAgAAAAAAAAAEABgAAAHgAQCAAACBzhlgYFsBfMFgCoAQdxdACAgC0XEKABUAGoVECDWApAyCAeQIAPAALTAGDwMAIAAAAAAAAAAAAAAAAAAAAAAAAAAAAAAA==

>  <PUBCHEM_IUPAC_OPENEYE_NAME>  (1) 
2-amino-9-[3,4-dihydroxy-5-(hydroxymethyl)tetrahydrofuran-2-yl]-3H-purin-6-one

>  <PUBCHEM_IUPAC_CAS_NAME>  (1) 
2-amino-9-[3,4-dihydroxy-5-(hydroxymethyl)-2-oxolanyl]-3H-purin-6-one

>  <PUBCHEM_IUPAC_NAME_MARKUP>  (1) 
2-amino-9-[3,4-dihydroxy-5-(hydroxymethyl)oxolan-2-yl]-3<I>H</I>-purin-6-one

>  <PUBCHEM_IUPAC_NAME>  (1) 
2-amino-9-[3,4-dihydroxy-5-(hydroxymethyl)oxolan-2-yl]-3H-purin-6-one

>  <PUBCHEM_IUPAC_SYSTEMATIC_NAME>  (1) 
2-azanyl-9-[5-(hydroxymethyl)-3,4-bis(oxidanyl)oxolan-2-yl]-3H-purin-6-one

>  <PUBCHEM_IUPAC_TRADITIONAL_NAME>  (1) 
2-amino-9-(3,4-dihydroxy-5-methylol-tetrahydrofuran-2-yl)-3H-purin-6-one

>  <PUBCHEM_IUPAC_INCHI>  (1) 
InChI=1S/C10H13N5O5/c11-10-13-7-4(8(19)14-10)12-2-15(7)9-6(18)5(17)3(1-16)20-9/h2-3,5-6,9,16-18H,1H2,(H3,11,13,14,19)

>  <PUBCHEM_IUPAC_INCHIKEY>  (1) 
NYHBQMYGNKIUIF-UHFFFAOYSA-N

>  <PUBCHEM_XLOGP3>  (1) 
-2.7

>  <PUBCHEM_EXACT_MASS>  (1) 
283.091669

>  <PUBCHEM_MOLECULAR_FORMULA>  (1) 
C10H13N5O5

>  <PUBCHEM_MOLECULAR_WEIGHT>  (1) 
283.24

>  <PUBCHEM_OPENEYE_CAN_SMILES>  (1) 
C1=NC2=C(N1C3C(C(C(O3)CO)O)O)NC(=NC2=O)N

>  <PUBCHEM_OPENEYE_ISO_SMILES>  (1) 
C1=NC2=C(N1C3C(C(C(O3)CO)O)O)NC(=NC2=O)N

>  <PUBCHEM_CACTVS_TPSA>  (1) 
155

>  <PUBCHEM_MONOISOTOPIC_WEIGHT>  (1) 
283.091669

>  <PUBCHEM_TOTAL_CHARGE>  (1) 
0

>  <PUBCHEM_HEAVY_ATOM_COUNT>  (1) 
20

>  <PUBCHEM_ATOM_DEF_STEREO_COUNT>  (1) 
0

>  <PUBCHEM_ATOM_UDEF_STEREO_COUNT>  (1) 
4

>  <PUBCHEM_BOND_DEF_STEREO_COUNT>  (1) 
0

>  <PUBCHEM_BOND_UDEF_STEREO_COUNT>  (1) 
0

>  <PUBCHEM_ISOTOPIC_ATOM_COUNT>  (1) 
0

>  <PUBCHEM_COMPONENT_COUNT>  (1) 
1

>  <PUBCHEM_CACTVS_TAUTO_COUNT>  (1) 
-1

>  <PUBCHEM_COORDINATE_TYPE>  (1) 
1
5
255

>  <PUBCHEM_BONDANNOTATIONS>  (1) 
14  15  3
16  18  8
18  19  8
12  2  3
13  3  3
11  6  3
6  16  8
6  17  8
7  16  8
7  20  8
8  17  8
8  18  8
9  19  8
9  20  8

$$$$
