768
     RDKit          2D

  2  1  0  0  0  0  0  0  0  0999 V2000
   -0.7500    0.0000    0.0000 N   0  0  0  0  0  0  0  0  0  0  0  0
    0.7500    0.0000    0.0000 C   0  0  0  0  0  0  0  0  0  0  0  0
  1  2  3  0
M  END
>  <PUBCHEM_COMPOUND_CID>  (1) 
768

>  <PUBCHEM_COMPOUND_CANONICALIZED>  (1) 
1

>  <PUBCHEM_CACTVS_COMPLEXITY>  (1) 
10

>  <PUBCHEM_CACTVS_HBOND_ACCEPTOR>  (1) 
1

>  <PUBCHEM_CACTVS_HBOND_DONOR>  (1) 
0

>  <PUBCHEM_CACTVS_ROTATABLE_BOND>  (1) 
0

>  <PUBCHEM_CACTVS_SUBSKEYS>  (1) 
AAADcQACAAAAAAAAAAAAAAAAAAAAAAAAAAAAAAAAAAAAAAAAAAAAFAAAAAAAAAAAAAQAAAAAAAAQAAAAAAAAAAAAAAAAAAAAAAAAAAAAAAAAAAAAAAAAAAAAAAAAAAAAAAAAAAAAAAAAAAAAAAAAAAAAAA==

>  <PUBCHEM_IUPAC_OPENEYE_NAME>  (1) 
formonitrile

>  <PUBCHEM_IUPAC_CAS_NAME>  (1) 
formonitrile

>  <PUBCHEM_IUPAC_NAME_MARKUP>  (1) 
formonitrile

>  <PUBCHEM_IUPAC_NAME>  (1) 
formonitrile

>  <PUBCHEM_IUPAC_SYSTEMATIC_NAME>  (1) 
methanenitrile

>  <PUBCHEM_IUPAC_TRADITIONAL_NAME>  (1) 
hydrogen cyanide

>  <PUBCHEM_IUPAC_INCHI>  (1) 
InChI=1S/CHN/c1-2/h1H

>  <PUBCHEM_IUPAC_INCHIKEY>  (1) 
LELOWRISYMNNSU-UHFFFAOYSA-N

>  <PUBCHEM_XLOGP3_AA>  (1) 
0.1

>  <PUBCHEM_EXACT_MASS>  (1) 
27.010899

>  <PUBCHEM_MOLECULAR_FORMULA>  (1) 
CHN

>  <PUBCHEM_MOLECULAR_WEIGHT>  (1) 
27.025

>  <PUBCHEM_OPENEYE_CAN_SMILES>  (1) 
C#N

>  <PUBCHEM_OPENEYE_ISO_SMILES>  (1) 
C#N

>  <PUBCHEM_CACTVS_TPSA>  (1) 
23.8

>  <PUBCHEM_MONOISOTOPIC_WEIGHT>  (1) 
27.010899

>  <PUBCHEM_TOTAL_CHARGE>  (1) 
0

>  <PUBCHEM_HEAVY_ATOM_COUNT>  (1) 
2

>  <PUBCHEM_ATOM_DEF_STEREO_COUNT>  (1) 
0

>  <PUBCHEM_ATOM_UDEF_STEREO_COUNT>  (1) 
0

>  <PUBCHEM_BOND_DEF_STEREO_COUNT>  (1) 
0

>  <PUBCHEM_BOND_UDEF_STEREO_COUNT>  (1) 
0

>  <PUBCHEM_ISOTOPIC_ATOM_COUNT>  (1) 
0

>  <PUBCHEM_COMPONENT_COUNT>  (1) 
1

>  <PUBCHEM_CACTVS_TAUTO_COUNT>  (1) 
-1

>  <PUBCHEM_COORDINATE_TYPE>  (1) 
1
5
255

$$$$
