77
     RDKit          2D

 12 11  0  0  1  0  0  0  0  0999 V2000
    0.5688   -1.3484    0.0000 O   0  0  0  0  0  0  0  0  0  0  0  0
   -0.3644    2.5089    0.0000 O   0  0  0  0  0  0  0  0  0  0  0  0
   -2.5505    1.1051    0.0000 O   0  0  0  0  0  0  0  0  0  0  0  0
    2.4243   -1.4619    0.0000 O   0  0  0  0  0  0  0  0  0  0  0  0
    3.6157    0.8469    0.0000 O   0  0  0  0  0  0  0  0  0  0  0  0
   -0.2417   -0.0863    0.0000 C   0  0  0  0  0  0  0  0  0  0  0  0
   -1.5039   -0.8968    0.0000 C   0  0  0  0  0  0  0  0  0  0  0  0
    1.0205    0.7242    0.0000 C   0  0  0  0  0  0  0  0  0  0  0  0
   -2.8369   -0.2089    0.0000 C   0  0  0  0  0  0  0  0  0  0  0  0
   -1.4331   -2.3951    0.0000 C   0  0  0  0  0  0  0  0  0  0  0  0
   -1.0522    1.1759    0.0000 C   0  0  0  0  0  0  0  0  0  0  0  0
    2.3535    0.0364    0.0000 C   0  0  0  0  0  0  0  0  0  0  0  0
  1  6  1  0
  2 11  1  0
  3 11  2  0
  4 12  1  0
  5 12  2  0
  6  7  1  0
  6  8  1  0
  6 11  1  0
  7  9  1  0
  7 10  1  0
  8 12  1  0
M  END
>  <PUBCHEM_COMPOUND_CID>  (1) 
77

>  <PUBCHEM_COMPOUND_CANONICALIZED>  (1) 
1

>  <PUBCHEM_CACTVS_COMPLEXITY>  (1) 
198

>  <PUBCHEM_CACTVS_HBOND_ACCEPTOR>  (1) 
5

>  <PUBCHEM_CACTVS_HBOND_DONOR>  (1) 
3

>  <PUBCHEM_CACTVS_ROTATABLE_BOND>  (1) 
4

>  <PUBCHEM_CACTVS_SUBSKEYS>  (1) 
AAADccBgOAAAAAAAAAAAAAAAAAAAAAAAAAAAAAAAAAAAAAAAAAAAGgAACAAADUSAgAACCAAAAgAIAACQCAIAAAAAAAAAAAFAAAABABYAAAAAQAAFIAABAADLAAAOgAAAAAAAAAAAAAAAAAAAAAAAAAAAAA==

>  <PUBCHEM_IUPAC_OPENEYE_NAME>  (1) 
2-hydroxy-2-isopropyl-butanedioic acid

>  <PUBCHEM_IUPAC_CAS_NAME>  (1) 
2-hydroxy-2-propan-2-ylbutanedioic acid

>  <PUBCHEM_IUPAC_NAME_MARKUP>  (1) 
2-hydroxy-2-propan-2-ylbutanedioic acid

>  <PUBCHEM_IUPAC_NAME>  (1) 
2-hydroxy-2-propan-2-ylbutanedioic acid

>  <PUBCHEM_IUPAC_SYSTEMATIC_NAME>  (1) 
2-oxidanyl-2-propan-2-yl-butanedioic acid

>  <PUBCHEM_IUPAC_TRADITIONAL_NAME>  (1) 
2-hydroxy-2-isopropyl-succinic acid

>  <PUBCHEM_IUPAC_INCHI>  (1) 
InChI=1S/C7H12O5/c1-4(2)7(12,6(10)11)3-5(8)9/h4,12H,3H2,1-2H3,(H,8,9)(H,10,11)

>  <PUBCHEM_IUPAC_INCHIKEY>  (1) 
BITYXLXUCSKTJS-UHFFFAOYSA-N

>  <PUBCHEM_XLOGP3_AA>  (1) 
-0.2

>  <PUBCHEM_EXACT_MASS>  (1) 
176.068473

>  <PUBCHEM_MOLECULAR_FORMULA>  (1) 
C7H12O5

>  <PUBCHEM_MOLECULAR_WEIGHT>  (1) 
176.17

>  <PUBCHEM_OPENEYE_CAN_SMILES>  (1) 
CC(C)C(CC(=O)O)(C(=O)O)O

>  <PUBCHEM_OPENEYE_ISO_SMILES>  (1) 
CC(C)C(CC(=O)O)(C(=O)O)O

>  <PUBCHEM_CACTVS_TPSA>  (1) 
94.8

>  <PUBCHEM_MONOISOTOPIC_WEIGHT>  (1) 
176.068473

>  <PUBCHEM_TOTAL_CHARGE>  (1) 
0

>  <PUBCHEM_HEAVY_ATOM_COUNT>  (1) 
12

>  <PUBCHEM_ATOM_DEF_STEREO_COUNT>  (1) 
0

>  <PUBCHEM_ATOM_UDEF_STEREO_COUNT>  (1) 
1

>  <PUBCHEM_BOND_DEF_STEREO_COUNT>  (1) 
0

>  <PUBCHEM_BOND_UDEF_STEREO_COUNT>  (1) 
0

>  <PUBCHEM_ISOTOPIC_ATOM_COUNT>  (1) 
0

>  <PUBCHEM_COMPONENT_COUNT>  (1) 
1

>  <PUBCHEM_CACTVS_TAUTO_COUNT>  (1) 
-1

>  <PUBCHEM_COORDINATE_TYPE>  (1) 
1
5
255

>  <PUBCHEM_BONDANNOTATIONS>  (1) 
6  1  3

$$$$
