771
     RDKit          2D

 58 62  0  0  1  0  0  0  0  0999 V2000
   -3.8939    3.1923    0.0000 O   0  0  0  0  0  0  0  0  0  0  0  0
   11.3878    2.5449    0.0000 O   0  0  0  0  0  0  0  0  0  0  0  0
   10.5680    5.0103    0.0000 O   0  0  0  0  0  0  0  0  0  0  0  0
   11.8154   -0.0398    0.0000 O   0  0  0  0  0  0  0  0  0  0  0  0
   11.8332   -2.6378    0.0000 O   0  0  0  0  0  0  0  0  0  0  0  0
    0.6783    1.1746    0.0000 N   0  0  0  0  0  0  0  0  0  0  0  0
    5.2374    2.9551    0.0000 N   0  0  0  0  0  0  0  0  0  0  0  0
    6.1247   -2.4088    0.0000 N   0  0  0  0  0  0  0  0  0  0  0  0
    0.7608   -3.2961    0.0000 N   0  0  0  0  0  0  0  0  0  0  0  0
   -1.6351    1.9087    0.0000 C   0  0  0  0  0  0  0  0  0  0  0  0
   -0.7617    3.1283    0.0000 C   0  0  0  0  0  0  0  0  0  0  0  0
    0.6680    2.6745    0.0000 C   0  0  0  0  0  0  0  0  0  0  0  0
   -0.7451    0.7013    0.0000 C   0  0  0  0  0  0  0  0  0  0  0  0
   -3.1350    1.8984    0.0000 C   0  0  0  0  0  0  0  0  0  0  0  0
    6.2979    3.5904    0.0000 C   0  0  0  0  0  0  0  0  0  0  0  0
    5.0784    4.4637    0.0000 C   0  0  0  0  0  0  0  0  0  0  0  0
    6.2631    1.8606    0.0000 C   0  0  0  0  0  0  0  0  0  0  0  0
    3.8709    3.5737    0.0000 C   0  0  0  0  0  0  0  0  0  0  0  0
    2.3717    3.6223    0.0000 C   0  0  0  0  0  0  0  0  0  0  0  0
   -1.2350    4.5516    0.0000 C   0  0  0  0  0  0  0  0  0  0  0  0
   -0.7937   -0.7979    0.0000 C   0  0  0  0  0  0  0  0  0  0  0  0
   -3.8761    0.5943    0.0000 C   0  0  0  0  0  0  0  0  0  0  0  0
    7.7213    4.0637    0.0000 C   0  0  0  0  0  0  0  0  0  0  0  0
    6.7920    0.4569    0.0000 C   0  0  0  0  0  0  0  0  0  0  0  0
    5.0681    5.9637    0.0000 C   0  0  0  0  0  0  0  0  0  0  0  0
   -0.2649   -2.2016    0.0000 C   0  0  0  0  0  0  0  0  0  0  0  0
    7.3333   -2.6687    0.0000 C   0  0  0  0  0  0  0  0  0  0  0  0
    6.7433   -1.0423    0.0000 C   0  0  0  0  0  0  0  0  0  0  0  0
    6.4600   -3.8883    0.0000 C   0  0  0  0  0  0  0  0  0  0  0  0
   -0.2997   -3.9314    0.0000 C   0  0  0  0  0  0  0  0  0  0  0  0
   -5.3761    0.5840    0.0000 C   0  0  0  0  0  0  0  0  0  0  0  0
    8.8429    3.0676    0.0000 C   0  0  0  0  0  0  0  0  0  0  0  0
    5.0302   -3.4345    0.0000 C   0  0  0  0  0  0  0  0  0  0  0  0
    2.1273   -3.9147    0.0000 C   0  0  0  0  0  0  0  0  0  0  0  0
    8.8333   -2.6584    0.0000 C   0  0  0  0  0  0  0  0  0  0  0  0
    0.9199   -4.8047    0.0000 C   0  0  0  0  0  0  0  0  0  0  0  0
    3.6266   -3.9633    0.0000 C   0  0  0  0  0  0  0  0  0  0  0  0
    6.9333   -5.3116    0.0000 C   0  0  0  0  0  0  0  0  0  0  0  0
   -1.7230   -4.4047    0.0000 C   0  0  0  0  0  0  0  0  0  0  0  0
   -6.1171   -0.7202    0.0000 C   0  0  0  0  0  0  0  0  0  0  0  0
    9.5743   -1.3543    0.0000 C   0  0  0  0  0  0  0  0  0  0  0  0
   10.2662    3.5409    0.0000 C   0  0  0  0  0  0  0  0  0  0  0  0
    0.9302   -6.3047    0.0000 C   0  0  0  0  0  0  0  0  0  0  0  0
   -7.6171   -0.7304    0.0000 C   0  0  0  0  0  0  0  0  0  0  0  0
   11.0743   -1.3440    0.0000 C   0  0  0  0  0  0  0  0  0  0  0  0
   -8.3760    0.5634    0.0000 C   0  0  0  0  0  0  0  0  0  0  0  0
    2.2343   -7.0458    0.0000 C   0  0  0  0  0  0  0  0  0  0  0  0
   -8.3582   -2.0346    0.0000 C   0  0  0  0  0  0  0  0  0  0  0  0
   -9.8760    0.5531    0.0000 C   0  0  0  0  0  0  0  0  0  0  0  0
  -10.6349    1.8470    0.0000 C   0  0  0  0  0  0  0  0  0  0  0  0
  -12.1348    1.8367    0.0000 C   0  0  0  0  0  0  0  0  0  0  0  0
  -12.8759    0.5326    0.0000 C   0  0  0  0  0  0  0  0  0  0  0  0
  -12.8937    3.1306    0.0000 C   0  0  0  0  0  0  0  0  0  0  0  0
  -14.3759    0.5223    0.0000 C   0  0  0  0  0  0  0  0  0  0  0  0
  -15.1169   -0.7819    0.0000 C   0  0  0  0  0  0  0  0  0  0  0  0
  -16.6169   -0.7922    0.0000 C   0  0  0  0  0  0  0  0  0  0  0  0
  -17.3580   -2.0963    0.0000 C   0  0  0  0  0  0  0  0  0  0  0  0
  -17.3758    0.5017    0.0000 C   0  0  0  0  0  0  0  0  0  0  0  0
  1 14  1  0
  2 42  1  0
  3 42  2  0
  4 45  1  0
  5 45  2  0
  6 12  1  0
  6 13  1  0
  7 17  1  0
  7 18  1  0
  8 28  1  0
  8 33  1  0
  9 26  1  0
  9 34  1  0
 10 11  1  0
 10 13  1  0
 10 14  1  0
 11 12  1  0
 11 20  1  0
 12 19  1  0
 13 21  1  0
 14 22  1  0
 15 16  1  0
 15 17  1  0
 15 23  1  0
 16 18  1  0
 16 25  1  0
 17 24  1  0
 18 19  2  3
 21 26  2  3
 22 31  1  0
 23 32  1  0
 24 28  2  3
 26 30  1  0
 27 28  1  0
 27 29  1  0
 27 35  1  0
 29 33  1  0
 29 38  1  0
 30 36  1  0
 30 39  1  0
 31 40  1  0
 32 42  1  0
 33 37  2  3
 34 36  2  0
 34 37  1  0
 35 41  1  0
 36 43  1  0
 40 44  2  3
 41 45  1  0
 43 47  2  0
 44 46  1  0
 44 48  1  0
 46 49  1  0
 49 50  1  0
 50 51  2  3
 51 52  1  0
 51 53  1  0
 52 54  1  0
 54 55  1  0
 55 56  2  3
 56 57  1  0
 56 58  1  0
M  END
>  <PUBCHEM_COMPOUND_CID>  (1) 
771

>  <PUBCHEM_COMPOUND_CANONICALIZED>  (1) 
1

>  <PUBCHEM_CACTVS_COMPLEXITY>  (1) 
1790

>  <PUBCHEM_CACTVS_HBOND_ACCEPTOR>  (1) 
9

>  <PUBCHEM_CACTVS_HBOND_DONOR>  (1) 
7

>  <PUBCHEM_CACTVS_ROTATABLE_BOND>  (1) 
17

>  <PUBCHEM_CACTVS_SUBSKEYS>  (1) 
AAADcfB/uAAAAAAAAAAAAAAAAAAAAWLFiAAAAAAAAAAAAAAAAAAAHgAQCAAADTzhgAYCCALAAgCIAiTSSACAAAAgAgAICIEIAAgIEBIAgQAEQAAGkACIgAO42dMegAAAAAAAAAAAAAAAAAAAAAAAAAAAAA==

>  <PUBCHEM_IUPAC_OPENEYE_NAME>  (1) 
3-[18-(2-carboxyethyl)-8-(1-hydroxy-5,9,13-trimethyl-tetradeca-4,8,12-trienyl)-3,7,12,17-tetramethyl-13-vinyl-1,2,3,6,7,8,9,12,17,18,21,22,23,24-tetradecahydroporphyrin-2-yl]propanoic acid

>  <PUBCHEM_IUPAC_CAS_NAME>  (1) 
3-[18-(2-carboxyethyl)-13-ethenyl-8-(1-hydroxy-5,9,13-trimethyltetradeca-4,8,12-trienyl)-3,7,12,17-tetramethyl-1,2,3,6,7,8,9,12,17,18,21,22,23,24-tetradecahydroporphyrin-2-yl]propanoic acid

>  <PUBCHEM_IUPAC_NAME_MARKUP>  (1) 
3-[18-(2-carboxyethyl)-13-ethenyl-8-(1-hydroxy-5,9,13-trimethyltetradeca-4,8,12-trienyl)-3,7,12,17-tetramethyl-1,2,3,6,7,8,9,12,17,18,21,22,23,24-tetradecahydroporphyrin-2-yl]propanoic acid

>  <PUBCHEM_IUPAC_NAME>  (1) 
3-[18-(2-carboxyethyl)-13-ethenyl-8-(1-hydroxy-5,9,13-trimethyltetradeca-4,8,12-trienyl)-3,7,12,17-tetramethyl-1,2,3,6,7,8,9,12,17,18,21,22,23,24-tetradecahydroporphyrin-2-yl]propanoic acid

>  <PUBCHEM_IUPAC_SYSTEMATIC_NAME>  (1) 
3-[13-ethenyl-18-(3-hydroxy-3-oxopropyl)-3,7,12,17-tetramethyl-8-(5,9,13-trimethyl-1-oxidanyl-tetradeca-4,8,12-trienyl)-1,2,3,6,7,8,9,12,17,18,21,22,23,24-tetradecahydroporphyrin-2-yl]propanoic acid

>  <PUBCHEM_IUPAC_TRADITIONAL_NAME>  (1) 
3-[18-(2-carboxyethyl)-8-(1-hydroxy-5,9,13-trimethyl-tetradeca-4,8,12-trienyl)-3,7,12,17-tetramethyl-13-vinyl-1,2,3,6,7,8,9,12,17,18,21,22,23,24-tetradecahydroporphin-2-yl]propionic acid

>  <PUBCHEM_IUPAC_INCHI>  (1) 
InChI=1S/C49H72N4O5/c1-10-35-31(6)40-26-45-49(46(54)19-13-18-30(5)17-12-16-29(4)15-11-14-28(2)3)34(9)41(53-45)24-38-32(7)36(20-22-47(55)56)43(51-38)27-44-37(21-23-48(57)58)33(8)39(52-44)25-42(35)50-40/h10,14,16,18,24-27,31-34,36-37,41,43,45-46,49-54H,1,11-13,15,17,19-23H2,2-9H3,(H,55,56)(H,57,58)

>  <PUBCHEM_IUPAC_INCHIKEY>  (1) 
QDWRZFOSFZXXTP-UHFFFAOYSA-N

>  <PUBCHEM_XLOGP3_AA>  (1) 
6.9

>  <PUBCHEM_EXACT_MASS>  (1) 
796.550271

>  <PUBCHEM_MOLECULAR_FORMULA>  (1) 
C49H72N4O5

>  <PUBCHEM_MOLECULAR_WEIGHT>  (1) 
797.1

>  <PUBCHEM_OPENEYE_CAN_SMILES>  (1) 
CC1C2C=C3C(C(C(N3)C=C4C(C(C(=CC5=C(C(C(=CC(C1C(CCC=C(C)CCC=C(C)CCC=C(C)C)O)N2)N5)C)C=C)N4)C)CCC(=O)O)CCC(=O)O)C

>  <PUBCHEM_OPENEYE_ISO_SMILES>  (1) 
CC1C2C=C3C(C(C(N3)C=C4C(C(C(=CC5=C(C(C(=CC(C1C(CCC=C(C)CCC=C(C)CCC=C(C)C)O)N2)N5)C)C=C)N4)C)CCC(=O)O)CCC(=O)O)C

>  <PUBCHEM_CACTVS_TPSA>  (1) 
143

>  <PUBCHEM_MONOISOTOPIC_WEIGHT>  (1) 
796.550271

>  <PUBCHEM_TOTAL_CHARGE>  (1) 
0

>  <PUBCHEM_HEAVY_ATOM_COUNT>  (1) 
58

>  <PUBCHEM_ATOM_DEF_STEREO_COUNT>  (1) 
0

>  <PUBCHEM_ATOM_UDEF_STEREO_COUNT>  (1) 
11

>  <PUBCHEM_BOND_DEF_STEREO_COUNT>  (1) 
0

>  <PUBCHEM_BOND_UDEF_STEREO_COUNT>  (1) 
6

>  <PUBCHEM_ISOTOPIC_ATOM_COUNT>  (1) 
0

>  <PUBCHEM_COMPONENT_COUNT>  (1) 
1

>  <PUBCHEM_CACTVS_TAUTO_COUNT>  (1) 
-1

>  <PUBCHEM_COORDINATE_TYPE>  (1) 
1
5
255

>  <PUBCHEM_BONDANNOTATIONS>  (1) 
14  1  3
10  14  3
11  20  3
12  19  3
13  21  3
15  23  3
16  25  3
17  24  3
18  19  1
21  26  1
24  28  1
27  35  3
29  38  3
30  39  3
33  37  1
40  44  1
50  51  1

$$$$
