774
     RDKit          2D

  8  8  0  0  0  0  0  0  0  0999 V2000
   -0.7668   -1.1162    0.0000 N   0  0  0  0  0  0  0  0  0  0  0  0
    3.7389   -0.0399    0.0000 N   0  0  0  0  0  0  0  0  0  0  0  0
   -2.6393    0.4279    0.0000 N   0  0  0  0  0  0  0  0  0  0  0  0
    1.2354    0.6548    0.0000 C   0  0  0  0  0  0  0  0  0  0  0  0
   -0.2168    0.2794    0.0000 C   0  0  0  0  0  0  0  0  0  0  0  0
    2.2867   -0.4153    0.0000 C   0  0  0  0  0  0  0  0  0  0  0  0
   -1.3741    1.2337    0.0000 C   0  0  0  0  0  0  0  0  0  0  0  0
   -2.2640   -1.0244    0.0000 C   0  0  0  0  0  0  0  0  0  0  0  0
  1  5  1  0
  1  8  1  0
  2  6  1  0
  3  7  1  0
  3  8  2  0
  4  5  1  0
  4  6  1  0
  5  7  2  0
M  END
>  <PUBCHEM_COMPOUND_CID>  (1) 
774

>  <PUBCHEM_COMPOUND_CANONICALIZED>  (1) 
1

>  <PUBCHEM_CACTVS_COMPLEXITY>  (1) 
64.7

>  <PUBCHEM_CACTVS_HBOND_ACCEPTOR>  (1) 
2

>  <PUBCHEM_CACTVS_HBOND_DONOR>  (1) 
2

>  <PUBCHEM_CACTVS_ROTATABLE_BOND>  (1) 
2

>  <PUBCHEM_CACTVS_SUBSKEYS>  (1) 
AAADccBjAAAAAAAAAAAAAAAAAAAAAWAAAAAAAAAAAAAAAAABgAAAHAAQAAAACAjBFgQtkBbJkACgARRnZAAAgC2xEqABUYA4cAiAaABAyQEUAAAIEAJAQCAAAAAAAAAAAAAAAAAAAAAAAAAAAAAAAAAAAA==

>  <PUBCHEM_IUPAC_OPENEYE_NAME>  (1) 
2-(1H-imidazol-5-yl)ethanamine

>  <PUBCHEM_IUPAC_CAS_NAME>  (1) 
2-(1H-imidazol-5-yl)ethanamine

>  <PUBCHEM_IUPAC_NAME_MARKUP>  (1) 
2-(1<I>H</I>-imidazol-5-yl)ethanamine

>  <PUBCHEM_IUPAC_NAME>  (1) 
2-(1H-imidazol-5-yl)ethanamine

>  <PUBCHEM_IUPAC_SYSTEMATIC_NAME>  (1) 
2-(1H-imidazol-5-yl)ethanamine

>  <PUBCHEM_IUPAC_TRADITIONAL_NAME>  (1) 
2-(1H-imidazol-5-yl)ethylamine

>  <PUBCHEM_IUPAC_INCHI>  (1) 
InChI=1S/C5H9N3/c6-2-1-5-3-7-4-8-5/h3-4H,1-2,6H2,(H,7,8)

>  <PUBCHEM_IUPAC_INCHIKEY>  (1) 
NTYJJOPFIAHURM-UHFFFAOYSA-N

>  <PUBCHEM_XLOGP3>  (1) 
-0.7

>  <PUBCHEM_EXACT_MASS>  (1) 
111.079647

>  <PUBCHEM_MOLECULAR_FORMULA>  (1) 
C5H9N3

>  <PUBCHEM_MOLECULAR_WEIGHT>  (1) 
111.15

>  <PUBCHEM_OPENEYE_CAN_SMILES>  (1) 
C1=C(NC=N1)CCN

>  <PUBCHEM_OPENEYE_ISO_SMILES>  (1) 
C1=C(NC=N1)CCN

>  <PUBCHEM_CACTVS_TPSA>  (1) 
54.7

>  <PUBCHEM_MONOISOTOPIC_WEIGHT>  (1) 
111.079647

>  <PUBCHEM_TOTAL_CHARGE>  (1) 
0

>  <PUBCHEM_HEAVY_ATOM_COUNT>  (1) 
8

>  <PUBCHEM_ATOM_DEF_STEREO_COUNT>  (1) 
0

>  <PUBCHEM_ATOM_UDEF_STEREO_COUNT>  (1) 
0

>  <PUBCHEM_BOND_DEF_STEREO_COUNT>  (1) 
0

>  <PUBCHEM_BOND_UDEF_STEREO_COUNT>  (1) 
0

>  <PUBCHEM_ISOTOPIC_ATOM_COUNT>  (1) 
0

>  <PUBCHEM_COMPONENT_COUNT>  (1) 
1

>  <PUBCHEM_CACTVS_TAUTO_COUNT>  (1) 
-1

>  <PUBCHEM_COORDINATE_TYPE>  (1) 
1
5
255

>  <PUBCHEM_BONDANNOTATIONS>  (1) 
1  5  8
1  8  8
3  7  8
3  8  8
5  7  8

$$$$
