776
     RDKit          2D

 10 10  0  0  1  0  0  0  0  0999 V2000
    4.1948   -0.2446    0.0000 O   0  0  0  0  0  0  0  0  0  0  0  0
    1.4194   -1.3834    0.0000 N   0  0  0  0  0  0  0  0  0  0  0  0
   -1.3096   -1.0066    0.0000 N   0  0  0  0  0  0  0  0  0  0  0  0
   -3.3748    0.2685    0.0000 N   0  0  0  0  0  0  0  0  0  0  0  0
    1.6201    0.1031    0.0000 C   0  0  0  0  0  0  0  0  0  0  0  0
    0.4331    1.0202    0.0000 C   0  0  0  0  0  0  0  0  0  0  0  0
   -0.9546    0.4508    0.0000 C   0  0  0  0  0  0  0  0  0  0  0  0
    3.0078    0.6725    0.0000 C   0  0  0  0  0  0  0  0  0  0  0  0
   -2.2309    1.2388    0.0000 C   0  0  0  0  0  0  0  0  0  0  0  0
   -2.8054   -1.1193    0.0000 C   0  0  0  0  0  0  0  0  0  0  0  0
  1  8  1  0
  2  5  1  0
  3  7  1  0
  3 10  1  0
  4  9  1  0
  4 10  2  0
  5  6  1  0
  5  8  1  0
  6  7  1  0
  7  9  2  0
M  END
>  <PUBCHEM_COMPOUND_CID>  (1) 
776

>  <PUBCHEM_COMPOUND_CANONICALIZED>  (1) 
1

>  <PUBCHEM_CACTVS_COMPLEXITY>  (1) 
99

>  <PUBCHEM_CACTVS_HBOND_ACCEPTOR>  (1) 
3

>  <PUBCHEM_CACTVS_HBOND_DONOR>  (1) 
3

>  <PUBCHEM_CACTVS_ROTATABLE_BOND>  (1) 
3

>  <PUBCHEM_CACTVS_SUBSKEYS>  (1) 
AAADccBjIAAAAAAAAAAAAAAAAAAAAWAAAAAAAAAAAAAAAAABgAAAHgAQCAAACCjhlgYtkBbJkgCgARRnZAAAgC2xEqABUYA4cAiCeAJA2QGUQAAMkAJAQCCwEAIAAAAAAAAAAAAAAAAAAAAAAAAAAAAAAA==

>  <PUBCHEM_IUPAC_OPENEYE_NAME>  (1) 
2-amino-3-(1H-imidazol-5-yl)propan-1-ol

>  <PUBCHEM_IUPAC_CAS_NAME>  (1) 
2-amino-3-(1H-imidazol-5-yl)-1-propanol

>  <PUBCHEM_IUPAC_NAME_MARKUP>  (1) 
2-amino-3-(1<I>H</I>-imidazol-5-yl)propan-1-ol

>  <PUBCHEM_IUPAC_NAME>  (1) 
2-amino-3-(1H-imidazol-5-yl)propan-1-ol

>  <PUBCHEM_IUPAC_SYSTEMATIC_NAME>  (1) 
2-azanyl-3-(1H-imidazol-5-yl)propan-1-ol

>  <PUBCHEM_IUPAC_TRADITIONAL_NAME>  (1) 
2-amino-3-(1H-imidazol-5-yl)propan-1-ol

>  <PUBCHEM_IUPAC_INCHI>  (1) 
InChI=1S/C6H11N3O/c7-5(3-10)1-6-2-8-4-9-6/h2,4-5,10H,1,3,7H2,(H,8,9)

>  <PUBCHEM_IUPAC_INCHIKEY>  (1) 
ZQISRDCJNBUVMM-UHFFFAOYSA-N

>  <PUBCHEM_XLOGP3_AA>  (1) 
-1.2

>  <PUBCHEM_EXACT_MASS>  (1) 
141.090212

>  <PUBCHEM_MOLECULAR_FORMULA>  (1) 
C6H11N3O

>  <PUBCHEM_MOLECULAR_WEIGHT>  (1) 
141.17

>  <PUBCHEM_OPENEYE_CAN_SMILES>  (1) 
C1=C(NC=N1)CC(CO)N

>  <PUBCHEM_OPENEYE_ISO_SMILES>  (1) 
C1=C(NC=N1)CC(CO)N

>  <PUBCHEM_CACTVS_TPSA>  (1) 
74.9

>  <PUBCHEM_MONOISOTOPIC_WEIGHT>  (1) 
141.090212

>  <PUBCHEM_TOTAL_CHARGE>  (1) 
0

>  <PUBCHEM_HEAVY_ATOM_COUNT>  (1) 
10

>  <PUBCHEM_ATOM_DEF_STEREO_COUNT>  (1) 
0

>  <PUBCHEM_ATOM_UDEF_STEREO_COUNT>  (1) 
1

>  <PUBCHEM_BOND_DEF_STEREO_COUNT>  (1) 
0

>  <PUBCHEM_BOND_UDEF_STEREO_COUNT>  (1) 
0

>  <PUBCHEM_ISOTOPIC_ATOM_COUNT>  (1) 
0

>  <PUBCHEM_COMPONENT_COUNT>  (1) 
1

>  <PUBCHEM_CACTVS_TAUTO_COUNT>  (1) 
-1

>  <PUBCHEM_COORDINATE_TYPE>  (1) 
1
5
255

>  <PUBCHEM_BONDANNOTATIONS>  (1) 
5  2  3
3  10  8
3  7  8
4  10  8
4  9  8
7  9  8

$$$$
