777
     RDKit          2D

 10 10  0  0  0  0  0  0  0  0999 V2000
   -3.3178    1.1977    0.0000 O   0  0  0  0  0  0  0  0  0  0  0  0
    1.3543   -1.0762    0.0000 N   0  0  0  0  0  0  0  0  0  0  0  0
    1.1710    1.5154    0.0000 N   0  0  0  0  0  0  0  0  0  0  0  0
   -0.7983   -2.5308    0.0000 N   0  0  0  0  0  0  0  0  0  0  0  0
   -0.9817    0.0608    0.0000 C   0  0  0  0  0  0  0  0  0  0  0  0
   -0.1419   -1.1821    0.0000 C   0  0  0  0  0  0  0  0  0  0  0  0
   -2.4780   -0.0451    0.0000 C   0  0  0  0  0  0  0  0  0  0  0  0
   -0.3253    1.4095    0.0000 C   0  0  0  0  0  0  0  0  0  0  0  0
    2.0108    0.2725    0.0000 C   0  0  0  0  0  0  0  0  0  0  0  0
    3.5070    0.3784    0.0000 C   0  0  0  0  0  0  0  0  0  0  0  0
  1  7  1  0
  2  6  2  0
  2  9  1  0
  3  8  1  0
  3  9  2  0
  4  6  1  0
  5  6  1  0
  5  7  1  0
  5  8  2  0
  9 10  1  0
M  END
>  <PUBCHEM_COMPOUND_CID>  (1) 
777

>  <PUBCHEM_COMPOUND_CANONICALIZED>  (1) 
1

>  <PUBCHEM_CACTVS_COMPLEXITY>  (1) 
109

>  <PUBCHEM_CACTVS_HBOND_ACCEPTOR>  (1) 
4

>  <PUBCHEM_CACTVS_HBOND_DONOR>  (1) 
2

>  <PUBCHEM_CACTVS_ROTATABLE_BOND>  (1) 
1

>  <PUBCHEM_CACTVS_SUBSKEYS>  (1) 
AAADccBjIAAAAAAAAAAAAAAAAAAAAAAAAAAsAAAAAAAAAAABgAAAHgAQCAAADADhmwYvsJZIEgCgAhJnZACAgCkRAKABUCA4TBCAHIBASUAERAgKAALAECAAAAAAAAAAAAAAAAAAAAAAAAAAAAAAAAAAAA==

>  <PUBCHEM_IUPAC_OPENEYE_NAME>  (1) 
(4-amino-2-methyl-pyrimidin-5-yl)methanol

>  <PUBCHEM_IUPAC_CAS_NAME>  (1) 
(4-amino-2-methyl-5-pyrimidinyl)methanol

>  <PUBCHEM_IUPAC_NAME_MARKUP>  (1) 
(4-amino-2-methylpyrimidin-5-yl)methanol

>  <PUBCHEM_IUPAC_NAME>  (1) 
(4-amino-2-methylpyrimidin-5-yl)methanol

>  <PUBCHEM_IUPAC_SYSTEMATIC_NAME>  (1) 
(4-azanyl-2-methyl-pyrimidin-5-yl)methanol

>  <PUBCHEM_IUPAC_TRADITIONAL_NAME>  (1) 
(4-amino-2-methyl-pyrimidin-5-yl)methanol

>  <PUBCHEM_IUPAC_INCHI>  (1) 
InChI=1S/C6H9N3O/c1-4-8-2-5(3-10)6(7)9-4/h2,10H,3H2,1H3,(H2,7,8,9)

>  <PUBCHEM_IUPAC_INCHIKEY>  (1) 
VUTBELPREDJDDH-UHFFFAOYSA-N

>  <PUBCHEM_XLOGP3_AA>  (1) 
-0.1

>  <PUBCHEM_EXACT_MASS>  (1) 
139.074562

>  <PUBCHEM_MOLECULAR_FORMULA>  (1) 
C6H9N3O

>  <PUBCHEM_MOLECULAR_WEIGHT>  (1) 
139.16

>  <PUBCHEM_OPENEYE_CAN_SMILES>  (1) 
CC1=NC=C(C(=N1)N)CO

>  <PUBCHEM_OPENEYE_ISO_SMILES>  (1) 
CC1=NC=C(C(=N1)N)CO

>  <PUBCHEM_CACTVS_TPSA>  (1) 
72

>  <PUBCHEM_MONOISOTOPIC_WEIGHT>  (1) 
139.074562

>  <PUBCHEM_TOTAL_CHARGE>  (1) 
0

>  <PUBCHEM_HEAVY_ATOM_COUNT>  (1) 
10

>  <PUBCHEM_ATOM_DEF_STEREO_COUNT>  (1) 
0

>  <PUBCHEM_ATOM_UDEF_STEREO_COUNT>  (1) 
0

>  <PUBCHEM_BOND_DEF_STEREO_COUNT>  (1) 
0

>  <PUBCHEM_BOND_UDEF_STEREO_COUNT>  (1) 
0

>  <PUBCHEM_ISOTOPIC_ATOM_COUNT>  (1) 
0

>  <PUBCHEM_COMPONENT_COUNT>  (1) 
1

>  <PUBCHEM_CACTVS_TAUTO_COUNT>  (1) 
-1

>  <PUBCHEM_COORDINATE_TYPE>  (1) 
1
5
255

>  <PUBCHEM_BONDANNOTATIONS>  (1) 
2  6  8
2  9  8
3  8  8
3  9  8
5  6  8
5  8  8

$$$$
