778
     RDKit          2D

  8  7  0  0  1  0  0  0  0  0999 V2000
    3.5551    0.5134    0.0000 S   0  0  0  0  0  0  0  0  0  0  0  0
   -2.9061   -0.4882    0.0000 O   0  0  0  0  0  0  0  0  0  0  0  0
   -1.6954    1.8105    0.0000 O   0  0  0  0  0  0  0  0  0  0  0  0
   -0.2517   -1.8862    0.0000 N   0  0  0  0  0  0  0  0  0  0  0  0
   -0.3100   -0.3873    0.0000 C   0  0  0  0  0  0  0  0  0  0  0  0
    0.9590    0.4126    0.0000 C   0  0  0  0  0  0  0  0  0  0  0  0
    2.2862   -0.2864    0.0000 C   0  0  0  0  0  0  0  0  0  0  0  0
   -1.6371    0.3117    0.0000 C   0  0  0  0  0  0  0  0  0  0  0  0
  1  7  1  0
  2  8  1  0
  3  8  2  0
  4  5  1  0
  5  6  1  0
  5  8  1  0
  6  7  1  0
M  END
>  <PUBCHEM_COMPOUND_CID>  (1) 
778

>  <PUBCHEM_COMPOUND_CANONICALIZED>  (1) 
1

>  <PUBCHEM_CACTVS_COMPLEXITY>  (1) 
86.1

>  <PUBCHEM_CACTVS_HBOND_ACCEPTOR>  (1) 
4

>  <PUBCHEM_CACTVS_HBOND_DONOR>  (1) 
3

>  <PUBCHEM_CACTVS_ROTATABLE_BOND>  (1) 
3

>  <PUBCHEM_CACTVS_SUBSKEYS>  (1) 
AAADccBiMABAAAAAAAAAAAAAAAAAAAAAAAAAAAAAAAAAAAAAAAAAHgQQCAAACCjFwASACABAAgQIAACQCAAAAAAAAAAAAIGAAAACABAAAAAAQAAEEAAAAAAAAAAAAAAAAAAAAAAAAAAAAAAAAAAAAAAAAA==

>  <PUBCHEM_IUPAC_OPENEYE_NAME>  (1) 
2-amino-4-sulfanyl-butanoic acid

>  <PUBCHEM_IUPAC_CAS_NAME>  (1) 
2-amino-4-mercaptobutanoic acid

>  <PUBCHEM_IUPAC_NAME_MARKUP>  (1) 
2-amino-4-sulfanylbutanoic acid

>  <PUBCHEM_IUPAC_NAME>  (1) 
2-amino-4-sulfanylbutanoic acid

>  <PUBCHEM_IUPAC_SYSTEMATIC_NAME>  (1) 
2-azanyl-4-sulfanyl-butanoic acid

>  <PUBCHEM_IUPAC_TRADITIONAL_NAME>  (1) 
2-amino-4-mercapto-butyric acid

>  <PUBCHEM_IUPAC_INCHI>  (1) 
InChI=1S/C4H9NO2S/c5-3(1-2-8)4(6)7/h3,8H,1-2,5H2,(H,6,7)

>  <PUBCHEM_IUPAC_INCHIKEY>  (1) 
FFFHZYDWPBMWHY-UHFFFAOYSA-N

>  <PUBCHEM_XLOGP3>  (1) 
-3.4

>  <PUBCHEM_EXACT_MASS>  (1) 
135.0354

>  <PUBCHEM_MOLECULAR_FORMULA>  (1) 
C4H9NO2S

>  <PUBCHEM_MOLECULAR_WEIGHT>  (1) 
135.19

>  <PUBCHEM_OPENEYE_CAN_SMILES>  (1) 
C(CS)C(C(=O)O)N

>  <PUBCHEM_OPENEYE_ISO_SMILES>  (1) 
C(CS)C(C(=O)O)N

>  <PUBCHEM_CACTVS_TPSA>  (1) 
64.3

>  <PUBCHEM_MONOISOTOPIC_WEIGHT>  (1) 
135.0354

>  <PUBCHEM_TOTAL_CHARGE>  (1) 
0

>  <PUBCHEM_HEAVY_ATOM_COUNT>  (1) 
8

>  <PUBCHEM_ATOM_DEF_STEREO_COUNT>  (1) 
0

>  <PUBCHEM_ATOM_UDEF_STEREO_COUNT>  (1) 
1

>  <PUBCHEM_BOND_DEF_STEREO_COUNT>  (1) 
0

>  <PUBCHEM_BOND_UDEF_STEREO_COUNT>  (1) 
0

>  <PUBCHEM_ISOTOPIC_ATOM_COUNT>  (1) 
0

>  <PUBCHEM_COMPONENT_COUNT>  (1) 
1

>  <PUBCHEM_CACTVS_TAUTO_COUNT>  (1) 
-1

>  <PUBCHEM_COORDINATE_TYPE>  (1) 
1
5
255

>  <PUBCHEM_BONDANNOTATIONS>  (1) 
5  4  3

$$$$
