782
     RDKit          2D

 12 12  0  0  1  0  0  0  0  0999 V2000
   -1.4995    2.7490    0.0000 O   0  0  0  0  0  0  0  0  0  0  0  0
   -3.7082   -2.0471    0.0000 O   0  0  0  0  0  0  0  0  0  0  0  0
    4.3478   -1.4267    0.0000 O   0  0  0  0  0  0  0  0  0  0  0  0
    3.8399    1.1213    0.0000 O   0  0  0  0  0  0  0  0  0  0  0  0
   -1.2007   -1.1209    0.0000 N   0  0  0  0  0  0  0  0  0  0  0  0
   -2.9836    0.5259    0.0000 N   0  0  0  0  0  0  0  0  0  0  0  0
   -0.5733    0.2416    0.0000 C   0  0  0  0  0  0  0  0  0  0  0  0
    0.8978    0.5348    0.0000 C   0  0  0  0  0  0  0  0  0  0  0  0
   -1.6752    1.2593    0.0000 C   0  0  0  0  0  0  0  0  0  0  0  0
    1.8872   -0.5926    0.0000 C   0  0  0  0  0  0  0  0  0  0  0  0
   -2.6904   -0.9452    0.0000 C   0  0  0  0  0  0  0  0  0  0  0  0
    3.3583   -0.2993    0.0000 C   0  0  0  0  0  0  0  0  0  0  0  0
  1  9  2  0
  2 11  2  0
  3 12  1  0
  4 12  2  0
  5  7  1  0
  5 11  1  0
  6  9  1  0
  6 11  1  0
  7  8  1  0
  7  9  1  0
  8 10  1  0
 10 12  1  0
M  END
>  <PUBCHEM_COMPOUND_CID>  (1) 
782

>  <PUBCHEM_COMPOUND_CANONICALIZED>  (1) 
1

>  <PUBCHEM_CACTVS_COMPLEXITY>  (1) 
238

>  <PUBCHEM_CACTVS_HBOND_ACCEPTOR>  (1) 
4

>  <PUBCHEM_CACTVS_HBOND_DONOR>  (1) 
3

>  <PUBCHEM_CACTVS_ROTATABLE_BOND>  (1) 
3

>  <PUBCHEM_CACTVS_SUBSKEYS>  (1) 
AAADccBjOAAAAAAAAAAAAAAAAAAAAWAAAAAAAAAAAAAAAAAAAAAAHgAQCAAACCjBgAQBCALAAgAIAAGQGAAAAAAAAAAAAIGIAACAQBIAgCAUQAAMFyIAAAC8FwIAAAAAAAAAAAAAAAAAAAAAAAAAAAAAAA==

>  <PUBCHEM_IUPAC_OPENEYE_NAME>  (1) 
3-(2,5-dioxoimidazolidin-4-yl)propanoic acid

>  <PUBCHEM_IUPAC_CAS_NAME>  (1) 
3-(2,5-dioxo-4-imidazolidinyl)propanoic acid

>  <PUBCHEM_IUPAC_NAME_MARKUP>  (1) 
3-(2,5-dioxoimidazolidin-4-yl)propanoic acid

>  <PUBCHEM_IUPAC_NAME>  (1) 
3-(2,5-dioxoimidazolidin-4-yl)propanoic acid

>  <PUBCHEM_IUPAC_SYSTEMATIC_NAME>  (1) 
3-[2,5-bis(oxidanylidene)imidazolidin-4-yl]propanoic acid

>  <PUBCHEM_IUPAC_TRADITIONAL_NAME>  (1) 
3-(2,5-diketoimidazolidin-4-yl)propionic acid

>  <PUBCHEM_IUPAC_INCHI>  (1) 
InChI=1S/C6H8N2O4/c9-4(10)2-1-3-5(11)8-6(12)7-3/h3H,1-2H2,(H,9,10)(H2,7,8,11,12)

>  <PUBCHEM_IUPAC_INCHIKEY>  (1) 
VWFWNXQAMGDPGG-UHFFFAOYSA-N

>  <PUBCHEM_XLOGP3_AA>  (1) 
-1.2

>  <PUBCHEM_EXACT_MASS>  (1) 
172.048407

>  <PUBCHEM_MOLECULAR_FORMULA>  (1) 
C6H8N2O4

>  <PUBCHEM_MOLECULAR_WEIGHT>  (1) 
172.14

>  <PUBCHEM_OPENEYE_CAN_SMILES>  (1) 
C(CC(=O)O)C1C(=O)NC(=O)N1

>  <PUBCHEM_OPENEYE_ISO_SMILES>  (1) 
C(CC(=O)O)C1C(=O)NC(=O)N1

>  <PUBCHEM_CACTVS_TPSA>  (1) 
95.5

>  <PUBCHEM_MONOISOTOPIC_WEIGHT>  (1) 
172.048407

>  <PUBCHEM_TOTAL_CHARGE>  (1) 
0

>  <PUBCHEM_HEAVY_ATOM_COUNT>  (1) 
12

>  <PUBCHEM_ATOM_DEF_STEREO_COUNT>  (1) 
0

>  <PUBCHEM_ATOM_UDEF_STEREO_COUNT>  (1) 
1

>  <PUBCHEM_BOND_DEF_STEREO_COUNT>  (1) 
0

>  <PUBCHEM_BOND_UDEF_STEREO_COUNT>  (1) 
0

>  <PUBCHEM_ISOTOPIC_ATOM_COUNT>  (1) 
0

>  <PUBCHEM_COMPONENT_COUNT>  (1) 
1

>  <PUBCHEM_CACTVS_TAUTO_COUNT>  (1) 
-1

>  <PUBCHEM_COORDINATE_TYPE>  (1) 
1
5
255

>  <PUBCHEM_BONDANNOTATIONS>  (1) 
7  8  3

$$$$
