786
     RDKit          2D

 15 14  0  0  1  0  0  0  0  0999 V2000
    1.2122   -1.1919    0.0000 P   0  0  0  0  0  0  0  0  0  0  0  0
    3.0337    0.6607    0.0000 P   0  0  0  0  0  0  0  0  0  0  0  0
   -0.2333   -1.5923    0.0000 O   0  0  0  0  0  0  0  0  0  0  0  0
    2.6578   -0.7914    0.0000 O   0  0  0  0  0  0  0  0  0  0  0  0
    1.6127   -2.6374    0.0000 O   0  0  0  0  0  0  0  0  0  0  0  0
   -1.9966    1.9631    0.0000 O   0  0  0  0  0  0  0  0  0  0  0  0
    0.8117    0.2537    0.0000 O   0  0  0  0  0  0  0  0  0  0  0  0
    1.5816    1.0367    0.0000 O   0  0  0  0  0  0  0  0  0  0  0  0
    3.4097    2.1129    0.0000 O   0  0  0  0  0  0  0  0  0  0  0  0
    4.4858    0.2848    0.0000 O   0  0  0  0  0  0  0  0  0  0  0  0
   -1.3029   -0.5407    0.0000 C   0  0  0  0  0  0  0  0  0  0  0  0
   -3.8181    0.1105    0.0000 C   0  0  0  0  0  0  0  0  0  0  0  0
   -2.7485   -0.9412    0.0000 C   0  0  0  0  0  0  0  0  0  0  0  0
   -3.4421    1.5626    0.0000 C   0  0  0  0  0  0  0  0  0  0  0  0
   -5.2636   -0.2900    0.0000 C   0  0  0  0  0  0  0  0  0  0  0  0
  1  3  1  0
  1  4  1  0
  1  5  1  0
  1  7  2  0
  2  4  1  0
  2  8  1  0
  2  9  1  0
  2 10  2  0
  3 11  1  0
  6 14  1  0
 11 13  1  0
 12 13  2  3
 12 14  1  0
 12 15  1  0
M  END
>  <PUBCHEM_COMPOUND_CID>  (1) 
786

>  <PUBCHEM_COMPOUND_CANONICALIZED>  (1) 
1

>  <PUBCHEM_CACTVS_COMPLEXITY>  (1) 
317

>  <PUBCHEM_CACTVS_HBOND_ACCEPTOR>  (1) 
8

>  <PUBCHEM_CACTVS_HBOND_DONOR>  (1) 
4

>  <PUBCHEM_CACTVS_ROTATABLE_BOND>  (1) 
6

>  <PUBCHEM_CACTVS_SUBSKEYS>  (1) 
AAADccBgPAMAAAAAAAAAAAAAAAAAAAAAAAAAAAAAAAAAAAAAAAAAGgAACCAADACggAICAAAAAxCAQiBCAIAAAAAAAAAACAAAAAAAFAAAAQAAUAAAAAAAEAAAAAAAAAAAAAAAAAAAAAAAAAAAAAAAAAAAAA==

>  <PUBCHEM_IUPAC_OPENEYE_NAME>  (1) 
(4-hydroxy-3-methyl-but-2-enyl) phosphono hydrogen phosphate

>  <PUBCHEM_IUPAC_CAS_NAME>  (1) 
(4-hydroxy-3-methylbut-2-enyl) phosphono hydrogen phosphate

>  <PUBCHEM_IUPAC_NAME_MARKUP>  (1) 
(4-hydroxy-3-methylbut-2-enyl) phosphono hydrogen phosphate

>  <PUBCHEM_IUPAC_NAME>  (1) 
(4-hydroxy-3-methylbut-2-enyl) phosphono hydrogen phosphate

>  <PUBCHEM_IUPAC_SYSTEMATIC_NAME>  (1) 
(3-methyl-4-oxidanyl-but-2-enyl) phosphono hydrogen phosphate

>  <PUBCHEM_IUPAC_TRADITIONAL_NAME>  (1) 
(4-hydroxy-3-methyl-but-2-enyl) phosphono hydrogen phosphate

>  <PUBCHEM_IUPAC_INCHI>  (1) 
InChI=1S/C5H12O8P2/c1-5(4-6)2-3-12-15(10,11)13-14(7,8)9/h2,6H,3-4H2,1H3,(H,10,11)(H2,7,8,9)

>  <PUBCHEM_IUPAC_INCHIKEY>  (1) 
MDSIZRKJVDMQOQ-UHFFFAOYSA-N

>  <PUBCHEM_XLOGP3_AA>  (1) 
-2.4

>  <PUBCHEM_EXACT_MASS>  (1) 
262.000741

>  <PUBCHEM_MOLECULAR_FORMULA>  (1) 
C5H12O8P2

>  <PUBCHEM_MOLECULAR_WEIGHT>  (1) 
262.09

>  <PUBCHEM_OPENEYE_CAN_SMILES>  (1) 
CC(=CCOP(=O)(O)OP(=O)(O)O)CO

>  <PUBCHEM_OPENEYE_ISO_SMILES>  (1) 
CC(=CCOP(=O)(O)OP(=O)(O)O)CO

>  <PUBCHEM_CACTVS_TPSA>  (1) 
134

>  <PUBCHEM_MONOISOTOPIC_WEIGHT>  (1) 
262.000741

>  <PUBCHEM_TOTAL_CHARGE>  (1) 
0

>  <PUBCHEM_HEAVY_ATOM_COUNT>  (1) 
15

>  <PUBCHEM_ATOM_DEF_STEREO_COUNT>  (1) 
0

>  <PUBCHEM_ATOM_UDEF_STEREO_COUNT>  (1) 
0

>  <PUBCHEM_BOND_DEF_STEREO_COUNT>  (1) 
0

>  <PUBCHEM_BOND_UDEF_STEREO_COUNT>  (1) 
1

>  <PUBCHEM_ISOTOPIC_ATOM_COUNT>  (1) 
0

>  <PUBCHEM_COMPONENT_COUNT>  (1) 
1

>  <PUBCHEM_CACTVS_TAUTO_COUNT>  (1) 
-1

>  <PUBCHEM_COORDINATE_TYPE>  (1) 
1
5
255

>  <PUBCHEM_BONDANNOTATIONS>  (1) 
12  13  1

$$$$
