788
     RDKit          2D

 61 64  0  0  0  0  0  0  0  0999 V2000
   -1.5263   -3.4348    0.0000 O   0  0  0  0  0  0  0  0  0  0  0  0
   -6.9786    5.3248    0.0000 O   0  0  0  0  0  0  0  0  0  0  0  0
   -0.7234   -2.5714    0.0000 O   0  0  0  0  0  0  0  0  0  0  0  0
   -6.1420    2.8652    0.0000 O   0  0  0  0  0  0  0  0  0  0  0  0
   -3.0235   -1.9677    0.0000 O   0  0  0  0  0  0  0  0  0  0  0  0
    2.3225    7.2749    0.0000 O   0  0  0  0  0  0  0  0  0  0  0  0
    3.0116   -5.9529    0.0000 O   0  0  0  0  0  0  0  0  0  0  0  0
   -0.0653    8.2989    0.0000 O   0  0  0  0  0  0  0  0  0  0  0  0
   -6.5254   -6.0613    0.0000 O   0  0  0  0  0  0  0  0  0  0  0  0
    0.4631   -5.4476    0.0000 O   0  0  0  0  0  0  0  0  0  0  0  0
   -4.1667   -4.9721    0.0000 O   0  0  0  0  0  0  0  0  0  0  0  0
  -10.9748   -1.9784    0.0000 O   0  0  0  0  0  0  0  0  0  0  0  0
    8.7732   -4.3298    0.0000 O   0  0  0  0  0  0  0  0  0  0  0  0
  -10.2059    0.5033    0.0000 O   0  0  0  0  0  0  0  0  0  0  0  0
    9.5420   -1.8481    0.0000 O   0  0  0  0  0  0  0  0  0  0  0  0
   12.3822    2.3465    0.0000 O   0  0  0  0  0  0  0  0  0  0  0  0
   12.1461   -0.2408    0.0000 O   0  0  0  0  0  0  0  0  0  0  0  0
   -2.0595    1.7462    0.0000 N   0  0  0  0  0  0  0  0  0  0  0  0
    2.5228    1.0848    0.0000 N   0  0  0  0  0  0  0  0  0  0  0  0
   -3.4806   -0.7951    0.0000 N   0  0  0  0  0  0  0  0  0  0  0  0
    5.4342    1.1247    0.0000 N   0  0  0  0  0  0  0  0  0  0  0  0
   -1.0712    2.8746    0.0000 C   0  0  0  0  0  0  0  0  0  0  0  0
    0.4226    2.7383    0.0000 C   0  0  0  0  0  0  0  0  0  0  0  0
   -1.8390    4.1632    0.0000 C   0  0  0  0  0  0  0  0  0  0  0  0
    1.0514    1.3765    0.0000 C   0  0  0  0  0  0  0  0  0  0  0  0
   -3.4381    2.3375    0.0000 C   0  0  0  0  0  0  0  0  0  0  0  0
   -3.3018    3.8313    0.0000 C   0  0  0  0  0  0  0  0  0  0  0  0
    0.3193    0.0673    0.0000 C   0  0  0  0  0  0  0  0  0  0  0  0
    1.3382   -1.0336    0.0000 C   0  0  0  0  0  0  0  0  0  0  0  0
    2.7000   -0.4047    0.0000 C   0  0  0  0  0  0  0  0  0  0  0  0
   -4.7267    1.5697    0.0000 C   0  0  0  0  0  0  0  0  0  0  0  0
   -4.7061    0.0699    0.0000 C   0  0  0  0  0  0  0  0  0  0  0  0
   -1.2477    5.5418    0.0000 C   0  0  0  0  0  0  0  0  0  0  0  0
    4.0092   -1.1368    0.0000 C   0  0  0  0  0  0  0  0  0  0  0  0
   -5.9074   -0.8284    0.0000 C   0  0  0  0  0  0  0  0  0  0  0  0
    1.0465   -2.5049    0.0000 C   0  0  0  0  0  0  0  0  0  0  0  0
   -4.4302    4.8196    0.0000 C   0  0  0  0  0  0  0  0  0  0  0  0
   -1.1702   -0.1100    0.0000 C   0  0  0  0  0  0  0  0  0  0  0  0
    5.2979   -0.3691    0.0000 C   0  0  0  0  0  0  0  0  0  0  0  0
   -5.4244   -2.2485    0.0000 C   0  0  0  0  0  0  0  0  0  0  0  0
   -3.9245   -2.2279    0.0000 C   0  0  0  0  0  0  0  0  0  0  0  0
   -7.3403   -0.3845    0.0000 C   0  0  0  0  0  0  0  0  0  0  0  0
    0.2418    5.7190    0.0000 C   0  0  0  0  0  0  0  0  0  0  0  0
    6.6764   -0.9603    0.0000 C   0  0  0  0  0  0  0  0  0  0  0  0
    2.1749   -3.4932    0.0000 C   0  0  0  0  0  0  0  0  0  0  0  0
    7.6647    0.1681    0.0000 C   0  0  0  0  0  0  0  0  0  0  0  0
   -6.2893   -3.4740    0.0000 C   0  0  0  0  0  0  0  0  0  0  0  0
    6.8970    1.4567    0.0000 C   0  0  0  0  0  0  0  0  0  0  0  0
   -3.0263   -3.4292    0.0000 C   0  0  0  0  0  0  0  0  0  0  0  0
   -8.4411   -1.4034    0.0000 C   0  0  0  0  0  0  0  0  0  0  0  0
    7.0084   -2.4231    0.0000 C   0  0  0  0  0  0  0  0  0  0  0  0
   -5.8503    4.3365    0.0000 C   0  0  0  0  0  0  0  0  0  0  0  0
    9.1585    0.0318    0.0000 C   0  0  0  0  0  0  0  0  0  0  0  0
   -1.7614   -1.4885    0.0000 C   0  0  0  0  0  0  0  0  0  0  0  0
    0.8330    7.0976    0.0000 C   0  0  0  0  0  0  0  0  0  0  0  0
    1.8832   -4.9646    0.0000 C   0  0  0  0  0  0  0  0  0  0  0  0
   10.0235    1.2573    0.0000 C   0  0  0  0  0  0  0  0  0  0  0  0
   -5.6605   -4.8358    0.0000 C   0  0  0  0  0  0  0  0  0  0  0  0
   -9.8739   -0.9595    0.0000 C   0  0  0  0  0  0  0  0  0  0  0  0
    8.4412   -2.8670    0.0000 C   0  0  0  0  0  0  0  0  0  0  0  0
   11.5173    1.1210    0.0000 C   0  0  0  0  0  0  0  0  0  0  0  0
  1 49  1  0
  2 52  1  0
  3 54  1  0
  4 52  2  0
  5 54  2  0
  6 55  1  0
  7 56  1  0
  8 55  2  0
  9 58  1  0
 10 56  2  0
 11 58  2  0
 12 59  1  0
 13 60  1  0
 14 59  2  0
 15 60  2  0
 16 61  1  0
 17 61  2  0
 18 22  1  0
 18 26  1  0
 19 25  1  0
 19 30  1  0
 20 32  1  0
 20 41  1  0
 21 39  1  0
 21 48  1  0
 22 23  1  0
 22 24  2  0
 23 25  1  0
 24 27  1  0
 24 33  1  0
 25 28  2  0
 26 27  2  0
 26 31  1  0
 27 37  1  0
 28 29  1  0
 28 38  1  0
 29 30  2  0
 29 36  1  0
 30 34  1  0
 31 32  1  0
 32 35  2  0
 33 43  1  0
 34 39  1  0
 35 40  1  0
 35 42  1  0
 36 45  1  0
 37 52  1  0
 38 54  1  0
 39 44  2  0
 40 41  2  0
 40 47  1  0
 41 49  1  0
 42 50  1  0
 43 55  1  0
 44 46  1  0
 44 51  1  0
 45 56  1  0
 46 48  2  0
 46 53  1  0
 47 58  1  0
 50 59  1  0
 51 60  1  0
 53 57  1  0
 57 61  1  0
M  END
>  <PUBCHEM_COMPOUND_CID>  (1) 
788

>  <PUBCHEM_COMPOUND_CANONICALIZED>  (1) 
1

>  <PUBCHEM_CACTVS_COMPLEXITY>  (1) 
1600

>  <PUBCHEM_CACTVS_HBOND_ACCEPTOR>  (1) 
17

>  <PUBCHEM_CACTVS_HBOND_DONOR>  (1) 
13

>  <PUBCHEM_CACTVS_ROTATABLE_BOND>  (1) 
27

>  <PUBCHEM_CACTVS_SUBSKEYS>  (1) 
AAADcfB/vgAAAAAAAAAAAAAAAAAAAWLFiwAAAAAAAAAAAAAB/gAAHgAQCAAADAjhngYsiJLJkgCoAxT3TASCgCAxACAA2aE4TJgKNnLA1ZGEcAhk0AHY2Ae8/fOegAAAAAAAAAAAAAAAAAAAAAAAAAAAAA==

>  <PUBCHEM_IUPAC_OPENEYE_NAME>  (1) 
3-[5-[[3-(2-carboxyethyl)-5-[[3-(2-carboxyethyl)-5-[[3-(2-carboxyethyl)-4-(carboxymethyl)-5-(hydroxymethyl)-1H-pyrrol-2-yl]methyl]-4-(carboxymethyl)-1H-pyrrol-2-yl]methyl]-4-(carboxymethyl)-1H-pyrrol-2-yl]methyl]-4-(carboxymethyl)-1H-pyrrol-3-yl]propanoic acid

>  <PUBCHEM_IUPAC_CAS_NAME>  (1) 
3-[5-[[3-(2-carboxyethyl)-5-[[3-(2-carboxyethyl)-5-[[3-(2-carboxyethyl)-4-(carboxymethyl)-5-(hydroxymethyl)-1H-pyrrol-2-yl]methyl]-4-(carboxymethyl)-1H-pyrrol-2-yl]methyl]-4-(carboxymethyl)-1H-pyrrol-2-yl]methyl]-4-(carboxymethyl)-1H-pyrrol-3-yl]propanoic acid

>  <PUBCHEM_IUPAC_NAME_MARKUP>  (1) 
3-[5-[[3-(2-carboxyethyl)-5-[[3-(2-carboxyethyl)-5-[[3-(2-carboxyethyl)-4-(carboxymethyl)-5-(hydroxymethyl)-1<I>H</I>-pyrrol-2-yl]methyl]-4-(carboxymethyl)-1<I>H</I>-pyrrol-2-yl]methyl]-4-(carboxymethyl)-1<I>H</I>-pyrrol-2-yl]methyl]-4-(carboxymethyl)-1<I>H</I>-pyrrol-3-yl]propanoic acid

>  <PUBCHEM_IUPAC_NAME>  (1) 
3-[5-[[3-(2-carboxyethyl)-5-[[3-(2-carboxyethyl)-5-[[3-(2-carboxyethyl)-4-(carboxymethyl)-5-(hydroxymethyl)-1H-pyrrol-2-yl]methyl]-4-(carboxymethyl)-1H-pyrrol-2-yl]methyl]-4-(carboxymethyl)-1H-pyrrol-2-yl]methyl]-4-(carboxymethyl)-1H-pyrrol-3-yl]propanoic acid

>  <PUBCHEM_IUPAC_SYSTEMATIC_NAME>  (1) 
3-[5-[[5-[[5-[[5-(hydroxymethyl)-4-(2-hydroxy-2-oxoethyl)-3-(3-hydroxy-3-oxopropyl)-1H-pyrrol-2-yl]methyl]-4-(2-hydroxy-2-oxoethyl)-3-(3-hydroxy-3-oxopropyl)-1H-pyrrol-2-yl]methyl]-4-(2-hydroxy-2-oxoethyl)-3-(3-hydroxy-3-oxopropyl)-1H-pyrrol-2-yl]methyl]-4-(2-hydroxy-2-oxoethyl)-1H-pyrrol-3-yl]propanoic acid

>  <PUBCHEM_IUPAC_TRADITIONAL_NAME>  (1) 
3-[5-[[3-(2-carboxyethyl)-5-[[3-(2-carboxyethyl)-5-[[3-(2-carboxyethyl)-4-(carboxymethyl)-5-methylol-1H-pyrrol-2-yl]methyl]-4-(carboxymethyl)-1H-pyrrol-2-yl]methyl]-4-(carboxymethyl)-1H-pyrrol-2-yl]methyl]-4-(carboxymethyl)-1H-pyrrol-3-yl]propionic acid

>  <PUBCHEM_IUPAC_INCHI>  (1) 
InChI=1S/C40H46N4O17/c45-17-32-25(12-40(60)61)21(4-8-36(52)53)29(44-32)15-31-24(11-39(58)59)20(3-7-35(50)51)28(43-31)14-30-23(10-38(56)57)19(2-6-34(48)49)27(42-30)13-26-22(9-37(54)55)18(16-41-26)1-5-33(46)47/h16,41-45H,1-15,17H2,(H,46,47)(H,48,49)(H,50,51)(H,52,53)(H,54,55)(H,56,57)(H,58,59)(H,60,61)

>  <PUBCHEM_IUPAC_INCHIKEY>  (1) 
WDFJYRZCZIUBPR-UHFFFAOYSA-N

>  <PUBCHEM_XLOGP3_AA>  (1) 
-0.9

>  <PUBCHEM_EXACT_MASS>  (1) 
854.285796

>  <PUBCHEM_MOLECULAR_FORMULA>  (1) 
C40H46N4O17

>  <PUBCHEM_MOLECULAR_WEIGHT>  (1) 
854.8

>  <PUBCHEM_OPENEYE_CAN_SMILES>  (1) 
C1=C(C(=C(N1)CC2=C(C(=C(N2)CC3=C(C(=C(N3)CC4=C(C(=C(N4)CO)CC(=O)O)CCC(=O)O)CC(=O)O)CCC(=O)O)CC(=O)O)CCC(=O)O)CC(=O)O)CCC(=O)O

>  <PUBCHEM_OPENEYE_ISO_SMILES>  (1) 
C1=C(C(=C(N1)CC2=C(C(=C(N2)CC3=C(C(=C(N3)CC4=C(C(=C(N4)CO)CC(=O)O)CCC(=O)O)CC(=O)O)CCC(=O)O)CC(=O)O)CCC(=O)O)CC(=O)O)CCC(=O)O

>  <PUBCHEM_CACTVS_TPSA>  (1) 
382

>  <PUBCHEM_MONOISOTOPIC_WEIGHT>  (1) 
854.285796

>  <PUBCHEM_TOTAL_CHARGE>  (1) 
0

>  <PUBCHEM_HEAVY_ATOM_COUNT>  (1) 
61

>  <PUBCHEM_ATOM_DEF_STEREO_COUNT>  (1) 
0

>  <PUBCHEM_ATOM_UDEF_STEREO_COUNT>  (1) 
0

>  <PUBCHEM_BOND_DEF_STEREO_COUNT>  (1) 
0

>  <PUBCHEM_BOND_UDEF_STEREO_COUNT>  (1) 
0

>  <PUBCHEM_ISOTOPIC_ATOM_COUNT>  (1) 
0

>  <PUBCHEM_COMPONENT_COUNT>  (1) 
1

>  <PUBCHEM_CACTVS_TAUTO_COUNT>  (1) 
-1

>  <PUBCHEM_COORDINATE_TYPE>  (1) 
1
5
255

>  <PUBCHEM_BONDANNOTATIONS>  (1) 
18  22  8
18  26  8
19  25  8
19  30  8
20  32  8
20  41  8
21  39  8
21  48  8
22  24  8
24  27  8
25  28  8
26  27  8
28  29  8
29  30  8
32  35  8
35  40  8
39  44  8
40  41  8
44  46  8
46  48  8

$$$$
