790
     RDKit          2D

 10 11  0  0  0  0  0  0  0  0999 V2000
    1.6198   -2.3424    0.0000 O   0  0  0  0  0  0  0  0  0  0  0  0
   -1.4947   -1.3828    0.0000 N   0  0  0  0  0  0  0  0  0  0  0  0
    0.3706    1.9807    0.0000 N   0  0  0  0  0  0  0  0  0  0  0  0
   -2.1684    0.9489    0.0000 N   0  0  0  0  0  0  0  0  0  0  0  0
    2.2432    0.1798    0.0000 N   0  0  0  0  0  0  0  0  0  0  0  0
   -0.2528   -0.5415    0.0000 C   0  0  0  0  0  0  0  0  0  0  0  0
   -0.6692    0.8996    0.0000 C   0  0  0  0  0  0  0  0  0  0  0  0
    1.2034   -0.9014    0.0000 C   0  0  0  0  0  0  0  0  0  0  0  0
   -2.6786   -0.4617    0.0000 C   0  0  0  0  0  0  0  0  0  0  0  0
    1.8268    1.6208    0.0000 C   0  0  0  0  0  0  0  0  0  0  0  0
  1  8  2  0
  2  6  1  0
  2  9  1  0
  3  7  1  0
  3 10  1  0
  4  7  1  0
  4  9  2  0
  5  8  1  0
  5 10  2  0
  6  7  2  0
  6  8  1  0
M  END
>  <PUBCHEM_COMPOUND_CID>  (1) 
790

>  <PUBCHEM_COMPOUND_CANONICALIZED>  (1) 
1

>  <PUBCHEM_CACTVS_COMPLEXITY>  (1) 
190

>  <PUBCHEM_CACTVS_HBOND_ACCEPTOR>  (1) 
2

>  <PUBCHEM_CACTVS_HBOND_DONOR>  (1) 
2

>  <PUBCHEM_CACTVS_ROTATABLE_BOND>  (1) 
0

>  <PUBCHEM_CACTVS_SUBSKEYS>  (1) 
AAADcYBjoAAAAAAAAAAAAAAAAAAAAWAAAAAgAAAAAAAAAEABgAAAHgAQAAAACAgBlgQFsBbJkACoAQdxdACAgC2XEKABUYGoVECASAhASCAUAIAIAAJAAGAAAAAAAAAAAAAAAAAAAAAAAAAAAAAAAAAAAA==

>  <PUBCHEM_IUPAC_OPENEYE_NAME>  (1) 
3,7-dihydropurin-6-one

>  <PUBCHEM_IUPAC_CAS_NAME>  (1) 
3,7-dihydropurin-6-one

>  <PUBCHEM_IUPAC_NAME_MARKUP>  (1) 
3,7-dihydropurin-6-one

>  <PUBCHEM_IUPAC_NAME>  (1) 
3,7-dihydropurin-6-one

>  <PUBCHEM_IUPAC_SYSTEMATIC_NAME>  (1) 
3,7-dihydropurin-6-one

>  <PUBCHEM_IUPAC_TRADITIONAL_NAME>  (1) 
3,7-dihydropurin-6-one

>  <PUBCHEM_IUPAC_INCHI>  (1) 
InChI=1S/C5H4N4O/c10-5-3-4(7-1-6-3)8-2-9-5/h1-2H,(H2,6,7,8,9,10)

>  <PUBCHEM_IUPAC_INCHIKEY>  (1) 
FDGQSTZJBFJUBT-UHFFFAOYSA-N

>  <PUBCHEM_XLOGP3>  (1) 
-1.1

>  <PUBCHEM_EXACT_MASS>  (1) 
136.038511

>  <PUBCHEM_MOLECULAR_FORMULA>  (1) 
C5H4N4O

>  <PUBCHEM_MOLECULAR_WEIGHT>  (1) 
136.11

>  <PUBCHEM_OPENEYE_CAN_SMILES>  (1) 
C1=NC2=C(N1)C(=O)N=CN2

>  <PUBCHEM_OPENEYE_ISO_SMILES>  (1) 
C1=NC2=C(N1)C(=O)N=CN2

>  <PUBCHEM_CACTVS_TPSA>  (1) 
70.1

>  <PUBCHEM_MONOISOTOPIC_WEIGHT>  (1) 
136.038511

>  <PUBCHEM_TOTAL_CHARGE>  (1) 
0

>  <PUBCHEM_HEAVY_ATOM_COUNT>  (1) 
10

>  <PUBCHEM_ATOM_DEF_STEREO_COUNT>  (1) 
0

>  <PUBCHEM_ATOM_UDEF_STEREO_COUNT>  (1) 
0

>  <PUBCHEM_BOND_DEF_STEREO_COUNT>  (1) 
0

>  <PUBCHEM_BOND_UDEF_STEREO_COUNT>  (1) 
0

>  <PUBCHEM_ISOTOPIC_ATOM_COUNT>  (1) 
0

>  <PUBCHEM_COMPONENT_COUNT>  (1) 
1

>  <PUBCHEM_CACTVS_TAUTO_COUNT>  (1) 
-1

>  <PUBCHEM_COORDINATE_TYPE>  (1) 
1
5
255

>  <PUBCHEM_BONDANNOTATIONS>  (1) 
2  6  8
2  9  8
3  10  8
3  7  8
4  7  8
4  9  8
5  10  8
5  8  8
6  7  8
6  8  8

$$$$
