792
     RDKit          2D

 14 14  0  0  0  0  0  0  0  0999 V2000
    3.8931    0.0105    0.0000 P   0  0  0  0  0  0  0  0  0  0  0  0
    2.4804   -0.4938    0.0000 O   0  0  0  0  0  0  0  0  0  0  0  0
   -0.3449   -1.5025    0.0000 O   0  0  0  0  0  0  0  0  0  0  0  0
    3.3888    1.4231    0.0000 O   0  0  0  0  0  0  0  0  0  0  0  0
    5.3058    0.5148    0.0000 O   0  0  0  0  0  0  0  0  0  0  0  0
    4.3974   -1.4022    0.0000 O   0  0  0  0  0  0  0  0  0  0  0  0
   -3.0535   -0.9993    0.0000 N   0  0  0  0  0  0  0  0  0  0  0  0
   -5.0572    0.3703    0.0000 N   0  0  0  0  0  0  0  0  0  0  0  0
   -1.2184    0.9444    0.0000 C   0  0  0  0  0  0  0  0  0  0  0  0
   -2.6311    0.4400    0.0000 C   0  0  0  0  0  0  0  0  0  0  0  0
   -0.0754   -0.0269    0.0000 C   0  0  0  0  0  0  0  0  0  0  0  0
    1.3373    0.4774    0.0000 C   0  0  0  0  0  0  0  0  0  0  0  0
   -3.8695    1.2865    0.0000 C   0  0  0  0  0  0  0  0  0  0  0  0
   -4.5529   -1.0424    0.0000 C   0  0  0  0  0  0  0  0  0  0  0  0
  1  2  1  0
  1  4  1  0
  1  5  1  0
  1  6  2  0
  2 12  1  0
  3 11  2  0
  7 10  1  0
  7 14  1  0
  8 13  1  0
  8 14  2  0
  9 10  1  0
  9 11  1  0
 10 13  2  0
 11 12  1  0
M  END
>  <PUBCHEM_COMPOUND_CID>  (1) 
792

>  <PUBCHEM_COMPOUND_CANONICALIZED>  (1) 
1

>  <PUBCHEM_CACTVS_COMPLEXITY>  (1) 
253

>  <PUBCHEM_CACTVS_HBOND_ACCEPTOR>  (1) 
6

>  <PUBCHEM_CACTVS_HBOND_DONOR>  (1) 
3

>  <PUBCHEM_CACTVS_ROTATABLE_BOND>  (1) 
5

>  <PUBCHEM_CACTVS_SUBSKEYS>  (1) 
AAADccBjOAIAAAAAAAAAAAAAAAAAAWAAAAAAAAAAAAAAAAABgAAAHgAQCCAACAzhlgYtkBbJkRCoQZR3ZIIAgC2xEqABUYF4cAiAaBpAnQCUAAAMkAJAQCC0EAIAAAAAAAAAAAAAAAAAAAAAAAAAAAAAAA==

>  <PUBCHEM_IUPAC_OPENEYE_NAME>  (1) 
[3-(1H-imidazol-5-yl)-2-oxo-propyl] dihydrogen phosphate

>  <PUBCHEM_IUPAC_CAS_NAME>  (1) 
[3-(1H-imidazol-5-yl)-2-oxopropyl] dihydrogen phosphate

>  <PUBCHEM_IUPAC_NAME_MARKUP>  (1) 
[3-(1<I>H</I>-imidazol-5-yl)-2-oxopropyl] dihydrogen phosphate

>  <PUBCHEM_IUPAC_NAME>  (1) 
[3-(1H-imidazol-5-yl)-2-oxopropyl] dihydrogen phosphate

>  <PUBCHEM_IUPAC_SYSTEMATIC_NAME>  (1) 
[3-(1H-imidazol-5-yl)-2-oxidanylidene-propyl] dihydrogen phosphate

>  <PUBCHEM_IUPAC_TRADITIONAL_NAME>  (1) 
[3-(1H-imidazol-5-yl)-2-keto-propyl] dihydrogen phosphate

>  <PUBCHEM_IUPAC_INCHI>  (1) 
InChI=1S/C6H9N2O5P/c9-6(3-13-14(10,11)12)1-5-2-7-4-8-5/h2,4H,1,3H2,(H,7,8)(H2,10,11,12)

>  <PUBCHEM_IUPAC_INCHIKEY>  (1) 
YCFFMSOLUMRAMD-UHFFFAOYSA-N

>  <PUBCHEM_XLOGP3_AA>  (1) 
-2

>  <PUBCHEM_EXACT_MASS>  (1) 
220.024908

>  <PUBCHEM_MOLECULAR_FORMULA>  (1) 
C6H9N2O5P

>  <PUBCHEM_MOLECULAR_WEIGHT>  (1) 
220.12

>  <PUBCHEM_OPENEYE_CAN_SMILES>  (1) 
C1=C(NC=N1)CC(=O)COP(=O)(O)O

>  <PUBCHEM_OPENEYE_ISO_SMILES>  (1) 
C1=C(NC=N1)CC(=O)COP(=O)(O)O

>  <PUBCHEM_CACTVS_TPSA>  (1) 
113

>  <PUBCHEM_MONOISOTOPIC_WEIGHT>  (1) 
220.024908

>  <PUBCHEM_TOTAL_CHARGE>  (1) 
0

>  <PUBCHEM_HEAVY_ATOM_COUNT>  (1) 
14

>  <PUBCHEM_ATOM_DEF_STEREO_COUNT>  (1) 
0

>  <PUBCHEM_ATOM_UDEF_STEREO_COUNT>  (1) 
0

>  <PUBCHEM_BOND_DEF_STEREO_COUNT>  (1) 
0

>  <PUBCHEM_BOND_UDEF_STEREO_COUNT>  (1) 
0

>  <PUBCHEM_ISOTOPIC_ATOM_COUNT>  (1) 
0

>  <PUBCHEM_COMPONENT_COUNT>  (1) 
1

>  <PUBCHEM_CACTVS_TAUTO_COUNT>  (1) 
-1

>  <PUBCHEM_COORDINATE_TYPE>  (1) 
1
5
255

>  <PUBCHEM_BONDANNOTATIONS>  (1) 
10  13  8
7  10  8
7  14  8
8  13  8
8  14  8

$$$$
