794
     RDKit          2D

 11 11  0  0  0  0  0  0  0  0999 V2000
    0.9461   -1.6947    0.0000 O   0  0  0  0  0  0  0  0  0  0  0  0
    3.8304   -0.8698    0.0000 O   0  0  0  0  0  0  0  0  0  0  0  0
    3.1161    1.6281    0.0000 O   0  0  0  0  0  0  0  0  0  0  0  0
   -1.7245   -1.0184    0.0000 N   0  0  0  0  0  0  0  0  0  0  0  0
   -3.6360    0.4772    0.0000 N   0  0  0  0  0  0  0  0  0  0  0  0
    0.2317    0.8032    0.0000 C   0  0  0  0  0  0  0  0  0  0  0  0
   -1.2105    0.3908    0.0000 C   0  0  0  0  0  0  0  0  0  0  0  0
   -2.3919    1.3151    0.0000 C   0  0  0  0  0  0  0  0  0  0  0  0
    1.3100   -0.2395    0.0000 C   0  0  0  0  0  0  0  0  0  0  0  0
   -3.2236   -0.9650    0.0000 C   0  0  0  0  0  0  0  0  0  0  0  0
    2.7522    0.1729    0.0000 C   0  0  0  0  0  0  0  0  0  0  0  0
  1  9  2  0
  2 11  1  0
  3 11  2  0
  4  7  1  0
  4 10  1  0
  5  8  1  0
  5 10  2  0
  6  7  1  0
  6  9  1  0
  7  8  2  0
  9 11  1  0
M  END
>  <PUBCHEM_COMPOUND_CID>  (1) 
794

>  <PUBCHEM_COMPOUND_CANONICALIZED>  (1) 
1

>  <PUBCHEM_CACTVS_COMPLEXITY>  (1) 
181

>  <PUBCHEM_CACTVS_HBOND_ACCEPTOR>  (1) 
4

>  <PUBCHEM_CACTVS_HBOND_DONOR>  (1) 
2

>  <PUBCHEM_CACTVS_ROTATABLE_BOND>  (1) 
3

>  <PUBCHEM_CACTVS_SUBSKEYS>  (1) 
AAADcYBjMAAAAAAAAAAAAAAAAAAAAWAAAAAAAAAAAAAAAAABgAAAHgAQCAAACAzBlgQtmBbJkgCoAZT3bAIAgC2xEqABUYF4cAiAaBpAnQCUQAAMkAJAQCC8EQIAAAAAAAAAAAAAAAAAAAAAAAAAAAAAAA==

>  <PUBCHEM_IUPAC_OPENEYE_NAME>  (1) 
3-(1H-imidazol-5-yl)-2-oxo-propanoic acid

>  <PUBCHEM_IUPAC_CAS_NAME>  (1) 
3-(1H-imidazol-5-yl)-2-oxopropanoic acid

>  <PUBCHEM_IUPAC_NAME_MARKUP>  (1) 
3-(1<I>H</I>-imidazol-5-yl)-2-oxopropanoic acid

>  <PUBCHEM_IUPAC_NAME>  (1) 
3-(1H-imidazol-5-yl)-2-oxopropanoic acid

>  <PUBCHEM_IUPAC_SYSTEMATIC_NAME>  (1) 
3-(1H-imidazol-5-yl)-2-oxidanylidene-propanoic acid

>  <PUBCHEM_IUPAC_TRADITIONAL_NAME>  (1) 
3-(1H-imidazol-5-yl)-2-keto-propionic acid

>  <PUBCHEM_IUPAC_INCHI>  (1) 
InChI=1S/C6H6N2O3/c9-5(6(10)11)1-4-2-7-3-8-4/h2-3H,1H2,(H,7,8)(H,10,11)

>  <PUBCHEM_IUPAC_INCHIKEY>  (1) 
JEJNWEREQWMOHB-UHFFFAOYSA-N

>  <PUBCHEM_XLOGP3_AA>  (1) 
-0.6

>  <PUBCHEM_EXACT_MASS>  (1) 
154.037842

>  <PUBCHEM_MOLECULAR_FORMULA>  (1) 
C6H6N2O3

>  <PUBCHEM_MOLECULAR_WEIGHT>  (1) 
154.12

>  <PUBCHEM_OPENEYE_CAN_SMILES>  (1) 
C1=C(NC=N1)CC(=O)C(=O)O

>  <PUBCHEM_OPENEYE_ISO_SMILES>  (1) 
C1=C(NC=N1)CC(=O)C(=O)O

>  <PUBCHEM_CACTVS_TPSA>  (1) 
83

>  <PUBCHEM_MONOISOTOPIC_WEIGHT>  (1) 
154.037842

>  <PUBCHEM_TOTAL_CHARGE>  (1) 
0

>  <PUBCHEM_HEAVY_ATOM_COUNT>  (1) 
11

>  <PUBCHEM_ATOM_DEF_STEREO_COUNT>  (1) 
0

>  <PUBCHEM_ATOM_UDEF_STEREO_COUNT>  (1) 
0

>  <PUBCHEM_BOND_DEF_STEREO_COUNT>  (1) 
0

>  <PUBCHEM_BOND_UDEF_STEREO_COUNT>  (1) 
0

>  <PUBCHEM_ISOTOPIC_ATOM_COUNT>  (1) 
0

>  <PUBCHEM_COMPONENT_COUNT>  (1) 
1

>  <PUBCHEM_CACTVS_TAUTO_COUNT>  (1) 
-1

>  <PUBCHEM_COORDINATE_TYPE>  (1) 
1
5
255

>  <PUBCHEM_BONDANNOTATIONS>  (1) 
4  10  8
4  7  8
5  10  8
5  8  8
7  8  8

$$$$
