795
     RDKit          2D

  5  5  0  0  0  0  0  0  0  0999 V2000
    1.2760   -0.0000    0.0000 N   0  0  0  0  0  0  0  0  0  0  0  0
   -1.0323   -0.7500    0.0000 N   0  0  0  0  0  0  0  0  0  0  0  0
    0.3943    1.2135    0.0000 C   0  0  0  0  0  0  0  0  0  0  0  0
    0.3943   -1.2135    0.0000 C   0  0  0  0  0  0  0  0  0  0  0  0
   -1.0323    0.7500    0.0000 C   0  0  0  0  0  0  0  0  0  0  0  0
  1  3  1  0
  1  4  1  0
  2  4  2  0
  2  5  1  0
  3  5  2  0
M  END
>  <PUBCHEM_COMPOUND_CID>  (1) 
795

>  <PUBCHEM_COMPOUND_CANONICALIZED>  (1) 
1

>  <PUBCHEM_CACTVS_COMPLEXITY>  (1) 
28.1

>  <PUBCHEM_CACTVS_HBOND_ACCEPTOR>  (1) 
1

>  <PUBCHEM_CACTVS_HBOND_DONOR>  (1) 
1

>  <PUBCHEM_CACTVS_ROTATABLE_BOND>  (1) 
0

>  <PUBCHEM_CACTVS_SUBSKEYS>  (1) 
AAADcYBDAAAAAAAAAAAAAAAAAAAAAWAAAAAAAAAAAAAAAAABgAAAHAAQAAAAAADBAgQtkBbJkACgABAnZAAAgC2REqAJQYAYMACASAAACAAQAAAIEAIAACAAAAAAAAAAAAAAAAAAAAAAAAAAAAAAAAAAAA==

>  <PUBCHEM_IUPAC_OPENEYE_NAME>  (1) 
imidazole

>  <PUBCHEM_IUPAC_CAS_NAME>  (1) 
1H-imidazole

>  <PUBCHEM_IUPAC_NAME_MARKUP>  (1) 
1<I>H</I>-imidazole

>  <PUBCHEM_IUPAC_NAME>  (1) 
1H-imidazole

>  <PUBCHEM_IUPAC_SYSTEMATIC_NAME>  (1) 
1H-imidazole

>  <PUBCHEM_IUPAC_TRADITIONAL_NAME>  (1) 
glyoxaline

>  <PUBCHEM_IUPAC_INCHI>  (1) 
InChI=1S/C3H4N2/c1-2-5-3-4-1/h1-3H,(H,4,5)

>  <PUBCHEM_IUPAC_INCHIKEY>  (1) 
RAXXELZNTBOGNW-UHFFFAOYSA-N

>  <PUBCHEM_XLOGP3>  (1) 
-0.1

>  <PUBCHEM_EXACT_MASS>  (1) 
68.037448

>  <PUBCHEM_MOLECULAR_FORMULA>  (1) 
C3H4N2

>  <PUBCHEM_MOLECULAR_WEIGHT>  (1) 
68.08

>  <PUBCHEM_OPENEYE_CAN_SMILES>  (1) 
C1=CN=CN1

>  <PUBCHEM_OPENEYE_ISO_SMILES>  (1) 
C1=CN=CN1

>  <PUBCHEM_CACTVS_TPSA>  (1) 
28.7

>  <PUBCHEM_MONOISOTOPIC_WEIGHT>  (1) 
68.037448

>  <PUBCHEM_TOTAL_CHARGE>  (1) 
0

>  <PUBCHEM_HEAVY_ATOM_COUNT>  (1) 
5

>  <PUBCHEM_ATOM_DEF_STEREO_COUNT>  (1) 
0

>  <PUBCHEM_ATOM_UDEF_STEREO_COUNT>  (1) 
0

>  <PUBCHEM_BOND_DEF_STEREO_COUNT>  (1) 
0

>  <PUBCHEM_BOND_UDEF_STEREO_COUNT>  (1) 
0

>  <PUBCHEM_ISOTOPIC_ATOM_COUNT>  (1) 
0

>  <PUBCHEM_COMPONENT_COUNT>  (1) 
1

>  <PUBCHEM_CACTVS_TAUTO_COUNT>  (1) 
-1

>  <PUBCHEM_COORDINATE_TYPE>  (1) 
1
5
255

>  <PUBCHEM_BONDANNOTATIONS>  (1) 
1  3  8
1  4  8
2  4  8
2  5  8
3  5  8

$$$$
