8
     RDKit          2D

 10  9  0  0  1  0  0  0  0  0999 V2000
    2.3875    0.4211    0.0000 O   0  0  0  0  0  0  0  0  0  0  0  0
   -1.2439    2.0221    0.0000 O   0  0  0  0  0  0  0  0  0  0  0  0
   -2.9511   -0.4448    0.0000 O   0  0  0  0  0  0  0  0  0  0  0  0
   -0.8147   -1.9232    0.0000 O   0  0  0  0  0  0  0  0  0  0  0  0
    0.8925    0.5436    0.0000 C   0  0  0  0  0  0  0  0  0  0  0  0
    0.7700   -0.9514    0.0000 C   0  0  0  0  0  0  0  0  0  0  0  0
   -0.6025    0.6662    0.0000 C   0  0  0  0  0  0  0  0  0  0  0  0
    1.0150    2.0386    0.0000 C   0  0  0  0  0  0  0  0  0  0  0  0
    2.0034   -1.8050    0.0000 C   0  0  0  0  0  0  0  0  0  0  0  0
   -1.4561   -0.5673    0.0000 C   0  0  0  0  0  0  0  0  0  0  0  0
  1  5  1  0
  2  7  1  0
  3 10  1  0
  4 10  2  0
  5  6  1  0
  5  7  1  0
  5  8  1  0
  6  9  1  0
  7 10  1  0
M  END
>  <PUBCHEM_COMPOUND_CID>  (1) 
8

>  <PUBCHEM_COMPOUND_CANONICALIZED>  (1) 
1

>  <PUBCHEM_CACTVS_COMPLEXITY>  (1) 
134

>  <PUBCHEM_CACTVS_HBOND_ACCEPTOR>  (1) 
4

>  <PUBCHEM_CACTVS_HBOND_DONOR>  (1) 
3

>  <PUBCHEM_CACTVS_ROTATABLE_BOND>  (1) 
3

>  <PUBCHEM_CACTVS_SUBSKEYS>  (1) 
AAADccBgOAAAAAAAAAAAAAAAAAAAAAAAAAAAAAAAAAAAAAAAAAAAGgAACAAADFSggAICCAAAAgAIAACQCAIAAAAAAAAAAAFAAAABEBYAAAAAQAAFIAABAACIAAAKAAAAAAAAAAAAAAAAAAAAAAAAAAAAAA==

>  <PUBCHEM_IUPAC_OPENEYE_NAME>  (1) 
2,3-dihydroxy-3-methyl-pentanoic acid

>  <PUBCHEM_IUPAC_CAS_NAME>  (1) 
2,3-dihydroxy-3-methylpentanoic acid

>  <PUBCHEM_IUPAC_NAME_MARKUP>  (1) 
2,3-dihydroxy-3-methylpentanoic acid

>  <PUBCHEM_IUPAC_NAME>  (1) 
2,3-dihydroxy-3-methylpentanoic acid

>  <PUBCHEM_IUPAC_SYSTEMATIC_NAME>  (1) 
3-methyl-2,3-bis(oxidanyl)pentanoic acid

>  <PUBCHEM_IUPAC_TRADITIONAL_NAME>  (1) 
2,3-dihydroxy-3-methyl-valeric acid

>  <PUBCHEM_IUPAC_INCHI>  (1) 
InChI=1S/C6H12O4/c1-3-6(2,10)4(7)5(8)9/h4,7,10H,3H2,1-2H3,(H,8,9)

>  <PUBCHEM_IUPAC_INCHIKEY>  (1) 
PDGXJDXVGMHUIR-UHFFFAOYSA-N

>  <PUBCHEM_XLOGP3_AA>  (1) 
-0.4

>  <PUBCHEM_EXACT_MASS>  (1) 
148.073559

>  <PUBCHEM_MOLECULAR_FORMULA>  (1) 
C6H12O4

>  <PUBCHEM_MOLECULAR_WEIGHT>  (1) 
148.16

>  <PUBCHEM_OPENEYE_CAN_SMILES>  (1) 
CCC(C)(C(C(=O)O)O)O

>  <PUBCHEM_OPENEYE_ISO_SMILES>  (1) 
CCC(C)(C(C(=O)O)O)O

>  <PUBCHEM_CACTVS_TPSA>  (1) 
77.8

>  <PUBCHEM_MONOISOTOPIC_WEIGHT>  (1) 
148.073559

>  <PUBCHEM_TOTAL_CHARGE>  (1) 
0

>  <PUBCHEM_HEAVY_ATOM_COUNT>  (1) 
10

>  <PUBCHEM_ATOM_DEF_STEREO_COUNT>  (1) 
0

>  <PUBCHEM_ATOM_UDEF_STEREO_COUNT>  (1) 
2

>  <PUBCHEM_BOND_DEF_STEREO_COUNT>  (1) 
0

>  <PUBCHEM_BOND_UDEF_STEREO_COUNT>  (1) 
0

>  <PUBCHEM_ISOTOPIC_ATOM_COUNT>  (1) 
0

>  <PUBCHEM_COMPONENT_COUNT>  (1) 
1

>  <PUBCHEM_CACTVS_TAUTO_COUNT>  (1) 
-1

>  <PUBCHEM_COORDINATE_TYPE>  (1) 
1
5
255

>  <PUBCHEM_BONDANNOTATIONS>  (1) 
5  1  3
7  2  3

$$$$
