80
     RDKit          2D

 12 12  0  0  1  0  0  0  0  0999 V2000
   -1.8750   -2.5981    0.0000 O   0  0  0  0  0  0  0  0  0  0  0  0
   -3.3750    0.0000    0.0000 O   0  0  0  0  0  0  0  0  0  0  0  0
   -1.8750    2.5981    0.0000 O   0  0  0  0  0  0  0  0  0  0  0  0
    3.3750   -1.2990    0.0000 O   0  0  0  0  0  0  0  0  0  0  0  0
    3.3750    1.2990    0.0000 O   0  0  0  0  0  0  0  0  0  0  0  0
   -1.1250   -1.2990    0.0000 C   0  0  0  0  0  0  0  0  0  0  0  0
   -1.8750    0.0000    0.0000 C   0  0  0  0  0  0  0  0  0  0  0  0
    0.3750   -1.2990    0.0000 C   0  0  0  0  0  0  0  0  0  0  0  0
    1.1250   -0.0000    0.0000 C   0  0  0  0  0  0  0  0  0  0  0  0
   -1.1250    1.2990    0.0000 C   0  0  0  0  0  0  0  0  0  0  0  0
    0.3750    1.2990    0.0000 C   0  0  0  0  0  0  0  0  0  0  0  0
    2.6250    0.0000    0.0000 C   0  0  0  0  0  0  0  0  0  0  0  0
  1  6  1  0
  2  7  1  0
  3 10  2  0
  4 12  1  0
  5 12  2  0
  6  7  1  0
  6  8  1  0
  7 10  1  0
  8  9  1  0
  9 11  2  0
  9 12  1  0
 10 11  1  0
M  END
>  <PUBCHEM_COMPOUND_CID>  (1) 
80

>  <PUBCHEM_COMPOUND_CANONICALIZED>  (1) 
1

>  <PUBCHEM_CACTVS_COMPLEXITY>  (1) 
255

>  <PUBCHEM_CACTVS_HBOND_ACCEPTOR>  (1) 
5

>  <PUBCHEM_CACTVS_HBOND_DONOR>  (1) 
3

>  <PUBCHEM_CACTVS_ROTATABLE_BOND>  (1) 
1

>  <PUBCHEM_CACTVS_SUBSKEYS>  (1) 
AAADccBgOAAAAAAAAAAAAAAAAAAAAAAAAAAgAAAAAAAAAAAAAAAAGgAACAAADBSggAIACAAAAgCIAqDSCAIAAAAgAAAACAFAAEgBFBYAAQAAUAAE4AAJEYPK7CTAAAAAAAAAAAAAAAAAAAAAAAAAAAAAAA==

>  <PUBCHEM_IUPAC_OPENEYE_NAME>  (1) 
4,5-dihydroxy-3-oxo-cyclohexene-1-carboxylic acid

>  <PUBCHEM_IUPAC_CAS_NAME>  (1) 
4,5-dihydroxy-3-oxo-1-cyclohexenecarboxylic acid

>  <PUBCHEM_IUPAC_NAME_MARKUP>  (1) 
4,5-dihydroxy-3-oxocyclohexene-1-carboxylic acid

>  <PUBCHEM_IUPAC_NAME>  (1) 
4,5-dihydroxy-3-oxocyclohexene-1-carboxylic acid

>  <PUBCHEM_IUPAC_SYSTEMATIC_NAME>  (1) 
4,5-bis(oxidanyl)-3-oxidanylidene-cyclohexene-1-carboxylic acid

>  <PUBCHEM_IUPAC_TRADITIONAL_NAME>  (1) 
4,5-dihydroxy-3-keto-cyclohexene-1-carboxylic acid

>  <PUBCHEM_IUPAC_INCHI>  (1) 
InChI=1S/C7H8O5/c8-4-1-3(7(11)12)2-5(9)6(4)10/h1,5-6,9-10H,2H2,(H,11,12)

>  <PUBCHEM_IUPAC_INCHIKEY>  (1) 
SLWWJZMPHJJOPH-UHFFFAOYSA-N

>  <PUBCHEM_XLOGP3_AA>  (1) 
-1.4

>  <PUBCHEM_EXACT_MASS>  (1) 
172.037173

>  <PUBCHEM_MOLECULAR_FORMULA>  (1) 
C7H8O5

>  <PUBCHEM_MOLECULAR_WEIGHT>  (1) 
172.13

>  <PUBCHEM_OPENEYE_CAN_SMILES>  (1) 
C1C(C(C(=O)C=C1C(=O)O)O)O

>  <PUBCHEM_OPENEYE_ISO_SMILES>  (1) 
C1C(C(C(=O)C=C1C(=O)O)O)O

>  <PUBCHEM_CACTVS_TPSA>  (1) 
94.8

>  <PUBCHEM_MONOISOTOPIC_WEIGHT>  (1) 
172.037173

>  <PUBCHEM_TOTAL_CHARGE>  (1) 
0

>  <PUBCHEM_HEAVY_ATOM_COUNT>  (1) 
12

>  <PUBCHEM_ATOM_DEF_STEREO_COUNT>  (1) 
0

>  <PUBCHEM_ATOM_UDEF_STEREO_COUNT>  (1) 
2

>  <PUBCHEM_BOND_DEF_STEREO_COUNT>  (1) 
0

>  <PUBCHEM_BOND_UDEF_STEREO_COUNT>  (1) 
0

>  <PUBCHEM_ISOTOPIC_ATOM_COUNT>  (1) 
0

>  <PUBCHEM_COMPONENT_COUNT>  (1) 
1

>  <PUBCHEM_CACTVS_TAUTO_COUNT>  (1) 
-1

>  <PUBCHEM_COORDINATE_TYPE>  (1) 
1
5
255

>  <PUBCHEM_BONDANNOTATIONS>  (1) 
6  1  3
7  2  3

$$$$
