809
     RDKit          2D

 16 16  0  0  1  0  0  0  0  0999 V2000
    1.4307   -1.3524    0.0000 O   0  0  0  0  0  0  0  0  0  0  0  0
   -1.4441   -2.2100    0.0000 O   0  0  0  0  0  0  0  0  0  0  0  0
   -4.7143    0.8812    0.0000 O   0  0  0  0  0  0  0  0  0  0  0  0
   -3.9716   -1.6084    0.0000 O   0  0  0  0  0  0  0  0  0  0  0  0
    4.6528    0.9644    0.0000 O   0  0  0  0  0  0  0  0  0  0  0  0
    2.1254    1.5660    0.0000 O   0  0  0  0  0  0  0  0  0  0  0  0
    0.3406   -0.3220    0.0000 C   0  0  0  0  0  0  0  0  0  0  0  0
   -1.0968   -0.7508    0.0000 C   0  0  0  0  0  0  0  0  0  0  0  0
   -2.1868    0.2796    0.0000 C   0  0  0  0  0  0  0  0  0  0  0  0
    0.6880    1.1372    0.0000 C   0  0  0  0  0  0  0  0  0  0  0  0
   -1.8395    1.7388    0.0000 C   0  0  0  0  0  0  0  0  0  0  0  0
   -0.4021    2.1676    0.0000 C   0  0  0  0  0  0  0  0  0  0  0  0
   -3.6242   -0.1492    0.0000 C   0  0  0  0  0  0  0  0  0  0  0  0
    2.8681   -0.9236    0.0000 C   0  0  0  0  0  0  0  0  0  0  0  0
    3.2154    0.5356    0.0000 C   0  0  0  0  0  0  0  0  0  0  0  0
    3.9582   -1.9540    0.0000 C   0  0  0  0  0  0  0  0  0  0  0  0
  1  7  1  0
  1 14  1  0
  2  8  1  0
  3 13  1  0
  4 13  2  0
  5 15  1  0
  6 15  2  0
  7  8  1  0
  7 10  1  0
  8  9  1  0
  9 11  2  0
  9 13  1  0
 10 12  2  0
 11 12  1  0
 14 15  1  0
 14 16  2  0
M  END
>  <PUBCHEM_COMPOUND_CID>  (1) 
809

>  <PUBCHEM_COMPOUND_CANONICALIZED>  (1) 
1

>  <PUBCHEM_CACTVS_COMPLEXITY>  (1) 
392

>  <PUBCHEM_CACTVS_HBOND_ACCEPTOR>  (1) 
6

>  <PUBCHEM_CACTVS_HBOND_DONOR>  (1) 
3

>  <PUBCHEM_CACTVS_ROTATABLE_BOND>  (1) 
4

>  <PUBCHEM_CACTVS_SUBSKEYS>  (1) 
AAADccBwOAAAAAAAAAAAAAAAAAAAAAAAAAAgAAAAAAAAAAAAAAAAGgAACAAADBSggAIACAAABgCIAiDSCAIACAAgAAAICAFAAEgJFBYAIQQCUAAF4AALsYLKAAAAAAAAAAAAAAAAAAAAAAAAAAAAAAAAAA==

>  <PUBCHEM_IUPAC_OPENEYE_NAME>  (1) 
5-(1-carboxyvinyloxy)-6-hydroxy-cyclohexa-1,3-diene-1-carboxylic acid

>  <PUBCHEM_IUPAC_CAS_NAME>  (1) 
5-(1-carboxyethenoxy)-6-hydroxy-1-cyclohexa-1,3-dienecarboxylic acid

>  <PUBCHEM_IUPAC_NAME_MARKUP>  (1) 
5-(1-carboxyethenoxy)-6-hydroxycyclohexa-1,3-diene-1-carboxylic acid

>  <PUBCHEM_IUPAC_NAME>  (1) 
5-(1-carboxyethenoxy)-6-hydroxycyclohexa-1,3-diene-1-carboxylic acid

>  <PUBCHEM_IUPAC_SYSTEMATIC_NAME>  (1) 
6-oxidanyl-5-(3-oxidanyl-3-oxidanylidene-prop-1-en-2-yl)oxy-cyclohexa-1,3-diene-1-carboxylic acid

>  <PUBCHEM_IUPAC_TRADITIONAL_NAME>  (1) 
5-(1-carboxyvinyloxy)-6-hydroxy-cyclohexa-1,3-diene-1-carboxylic acid

>  <PUBCHEM_IUPAC_INCHI>  (1) 
InChI=1S/C10H10O6/c1-5(9(12)13)16-7-4-2-3-6(8(7)11)10(14)15/h2-4,7-8,11H,1H2,(H,12,13)(H,14,15)

>  <PUBCHEM_IUPAC_INCHIKEY>  (1) 
NTGWPRCCOQCMGE-UHFFFAOYSA-N

>  <PUBCHEM_XLOGP3_AA>  (1) 
0.8

>  <PUBCHEM_EXACT_MASS>  (1) 
226.047738

>  <PUBCHEM_MOLECULAR_FORMULA>  (1) 
C10H10O6

>  <PUBCHEM_MOLECULAR_WEIGHT>  (1) 
226.18

>  <PUBCHEM_OPENEYE_CAN_SMILES>  (1) 
C=C(C(=O)O)OC1C=CC=C(C1O)C(=O)O

>  <PUBCHEM_OPENEYE_ISO_SMILES>  (1) 
C=C(C(=O)O)OC1C=CC=C(C1O)C(=O)O

>  <PUBCHEM_CACTVS_TPSA>  (1) 
104

>  <PUBCHEM_MONOISOTOPIC_WEIGHT>  (1) 
226.047738

>  <PUBCHEM_TOTAL_CHARGE>  (1) 
0

>  <PUBCHEM_HEAVY_ATOM_COUNT>  (1) 
16

>  <PUBCHEM_ATOM_DEF_STEREO_COUNT>  (1) 
0

>  <PUBCHEM_ATOM_UDEF_STEREO_COUNT>  (1) 
2

>  <PUBCHEM_BOND_DEF_STEREO_COUNT>  (1) 
0

>  <PUBCHEM_BOND_UDEF_STEREO_COUNT>  (1) 
0

>  <PUBCHEM_ISOTOPIC_ATOM_COUNT>  (1) 
0

>  <PUBCHEM_COMPONENT_COUNT>  (1) 
1

>  <PUBCHEM_CACTVS_TAUTO_COUNT>  (1) 
-1

>  <PUBCHEM_COORDINATE_TYPE>  (1) 
1
5
255

>  <PUBCHEM_BONDANNOTATIONS>  (1) 
7  1  3
8  2  3

$$$$
