81
     RDKit          2D

 18 17  0  0  1  0  0  0  0  0999 V2000
   -5.1340    0.1943    0.0000 P   0  0  0  0  0  0  0  0  0  0  0  0
    0.0061    1.8764    0.0000 O   0  0  0  0  0  0  0  0  0  0  0  0
    1.4364   -1.8255    0.0000 O   0  0  0  0  0  0  0  0  0  0  0  0
   -1.1601   -1.9170    0.0000 O   0  0  0  0  0  0  0  0  0  0  0  0
   -3.8094   -0.5095    0.0000 O   0  0  0  0  0  0  0  0  0  0  0  0
    4.0329   -1.7340    0.0000 O   0  0  0  0  0  0  0  0  0  0  0  0
   -4.4302    1.5190    0.0000 O   0  0  0  0  0  0  0  0  0  0  0  0
   -6.4587    0.8981    0.0000 O   0  0  0  0  0  0  0  0  0  0  0  0
   -5.8378   -1.1303    0.0000 O   0  0  0  0  0  0  0  0  0  0  0  0
    6.5765   -0.1435    0.0000 O   0  0  0  0  0  0  0  0  0  0  0  0
    5.1990    2.0594    0.0000 O   0  0  0  0  0  0  0  0  0  0  0  0
    0.0589    0.3773    0.0000 C   0  0  0  0  0  0  0  0  0  0  0  0
    1.3836   -0.3265    0.0000 C   0  0  0  0  0  0  0  0  0  0  0  0
   -1.2129   -0.4180    0.0000 C   0  0  0  0  0  0  0  0  0  0  0  0
    2.6554    0.4688    0.0000 C   0  0  0  0  0  0  0  0  0  0  0  0
   -2.5375    0.2858    0.0000 C   0  0  0  0  0  0  0  0  0  0  0  0
    3.9800   -0.2350    0.0000 C   0  0  0  0  0  0  0  0  0  0  0  0
    5.2518    0.5603    0.0000 C   0  0  0  0  0  0  0  0  0  0  0  0
  1  5  1  0
  1  7  1  0
  1  8  1  0
  1  9  2  0
  2 12  1  0
  3 13  1  0
  4 14  1  0
  5 16  1  0
  6 17  2  0
 10 18  1  0
 11 18  2  0
 12 13  1  0
 12 14  1  0
 13 15  1  0
 14 16  1  0
 15 17  1  0
 17 18  1  0
M  END
>  <PUBCHEM_COMPOUND_CID>  (1) 
81

>  <PUBCHEM_COMPOUND_CANONICALIZED>  (1) 
1

>  <PUBCHEM_CACTVS_COMPLEXITY>  (1) 
348

>  <PUBCHEM_CACTVS_HBOND_ACCEPTOR>  (1) 
10

>  <PUBCHEM_CACTVS_HBOND_DONOR>  (1) 
6

>  <PUBCHEM_CACTVS_ROTATABLE_BOND>  (1) 
8

>  <PUBCHEM_CACTVS_SUBSKEYS>  (1) 
AAADccBgPAIAAAAAAAAAAAAAAAAAAAAAAAAAAAAAAAAAAAAAAAAAGgAACCAACBSggAIACAAAAxAIQICQCIIAAAAAAAAAAAFAAAABEBYAAAAAQAAFIAABAAHK7CTAAAAAAAAAAAAAAAAAAAAAAAAAAAAAAA==

>  <PUBCHEM_IUPAC_OPENEYE_NAME>  (1) 
4,5,6-trihydroxy-2-oxo-7-phosphonooxy-heptanoic acid

>  <PUBCHEM_IUPAC_CAS_NAME>  (1) 
4,5,6-trihydroxy-2-oxo-7-phosphonooxyheptanoic acid

>  <PUBCHEM_IUPAC_NAME_MARKUP>  (1) 
4,5,6-trihydroxy-2-oxo-7-phosphonooxyheptanoic acid

>  <PUBCHEM_IUPAC_NAME>  (1) 
4,5,6-trihydroxy-2-oxo-7-phosphonooxyheptanoic acid

>  <PUBCHEM_IUPAC_SYSTEMATIC_NAME>  (1) 
4,5,6-tris(oxidanyl)-2-oxidanylidene-7-phosphonooxy-heptanoic acid

>  <PUBCHEM_IUPAC_TRADITIONAL_NAME>  (1) 
4,5,6-trihydroxy-2-keto-7-phosphonooxy-enanthic acid

>  <PUBCHEM_IUPAC_INCHI>  (1) 
InChI=1S/C7H13O10P/c8-3(1-4(9)7(12)13)6(11)5(10)2-17-18(14,15)16/h3,5-6,8,10-11H,1-2H2,(H,12,13)(H2,14,15,16)

>  <PUBCHEM_IUPAC_INCHIKEY>  (1) 
PJWIPEXIFFQAQZ-UHFFFAOYSA-N

>  <PUBCHEM_XLOGP3_AA>  (1) 
-4

>  <PUBCHEM_EXACT_MASS>  (1) 
288.024634

>  <PUBCHEM_MOLECULAR_FORMULA>  (1) 
C7H13O10P

>  <PUBCHEM_MOLECULAR_WEIGHT>  (1) 
288.15

>  <PUBCHEM_OPENEYE_CAN_SMILES>  (1) 
C(C(C(C(COP(=O)(O)O)O)O)O)C(=O)C(=O)O

>  <PUBCHEM_OPENEYE_ISO_SMILES>  (1) 
C(C(C(C(COP(=O)(O)O)O)O)O)C(=O)C(=O)O

>  <PUBCHEM_CACTVS_TPSA>  (1) 
182

>  <PUBCHEM_MONOISOTOPIC_WEIGHT>  (1) 
288.024634

>  <PUBCHEM_TOTAL_CHARGE>  (1) 
0

>  <PUBCHEM_HEAVY_ATOM_COUNT>  (1) 
18

>  <PUBCHEM_ATOM_DEF_STEREO_COUNT>  (1) 
0

>  <PUBCHEM_ATOM_UDEF_STEREO_COUNT>  (1) 
3

>  <PUBCHEM_BOND_DEF_STEREO_COUNT>  (1) 
0

>  <PUBCHEM_BOND_UDEF_STEREO_COUNT>  (1) 
0

>  <PUBCHEM_ISOTOPIC_ATOM_COUNT>  (1) 
0

>  <PUBCHEM_COMPONENT_COUNT>  (1) 
1

>  <PUBCHEM_CACTVS_TAUTO_COUNT>  (1) 
-1

>  <PUBCHEM_COORDINATE_TYPE>  (1) 
1
5
255

>  <PUBCHEM_BONDANNOTATIONS>  (1) 
12  2  3
13  3  3
14  4  3

$$$$
