811
     RDKit          2D

  9  8  0  0  0  0  0  0  0  0999 V2000
   -3.1492    0.4401    0.0000 O   0  0  0  0  0  0  0  0  0  0  0  0
    0.2064   -1.6788    0.0000 O   0  0  0  0  0  0  0  0  0  0  0  0
   -1.2542   -1.3372    0.0000 O   0  0  0  0  0  0  0  0  0  0  0  0
    2.6931   -0.9264    0.0000 O   0  0  0  0  0  0  0  0  0  0  0  0
   -0.6625    1.1926    0.0000 C   0  0  0  0  0  0  0  0  0  0  0  0
    0.7981    0.8510    0.0000 C   0  0  0  0  0  0  0  0  0  0  0  0
   -1.6886    0.0985    0.0000 C   0  0  0  0  0  0  0  0  0  0  0  0
    1.2325   -0.5848    0.0000 C   0  0  0  0  0  0  0  0  0  0  0  0
    1.8243    1.9450    0.0000 C   0  0  0  0  0  0  0  0  0  0  0  0
  1  7  1  0
  2  8  1  0
  3  7  2  0
  4  8  2  0
  5  6  1  0
  5  7  1  0
  6  8  1  0
  6  9  2  0
M  END
>  <PUBCHEM_COMPOUND_CID>  (1) 
811

>  <PUBCHEM_COMPOUND_CANONICALIZED>  (1) 
1

>  <PUBCHEM_CACTVS_COMPLEXITY>  (1) 
158

>  <PUBCHEM_CACTVS_HBOND_ACCEPTOR>  (1) 
4

>  <PUBCHEM_CACTVS_HBOND_DONOR>  (1) 
2

>  <PUBCHEM_CACTVS_ROTATABLE_BOND>  (1) 
3

>  <PUBCHEM_CACTVS_SUBSKEYS>  (1) 
AAADcYBgOAAAAAAAAAAAAAAAAAAAAAAAAAAAAAAAAAAAAAAAAAAAGgAACAAADACAgAAACAAAAgCIAgDSCAAAAAAgAAAAAAEAAEgABBAAAQAAQAAEQAAAEIBDAAAAAAAAAAAAAAAAAAAAAAAAAAAAAAAAAA==

>  <PUBCHEM_IUPAC_OPENEYE_NAME>  (1) 
2-methylenebutanedioic acid

>  <PUBCHEM_IUPAC_CAS_NAME>  (1) 
2-methylenebutanedioic acid

>  <PUBCHEM_IUPAC_NAME_MARKUP>  (1) 
2-methylidenebutanedioic acid

>  <PUBCHEM_IUPAC_NAME>  (1) 
2-methylidenebutanedioic acid

>  <PUBCHEM_IUPAC_SYSTEMATIC_NAME>  (1) 
2-methylidenebutanedioic acid

>  <PUBCHEM_IUPAC_TRADITIONAL_NAME>  (1) 
itaconic acid

>  <PUBCHEM_IUPAC_INCHI>  (1) 
InChI=1S/C5H6O4/c1-3(5(8)9)2-4(6)7/h1-2H2,(H,6,7)(H,8,9)

>  <PUBCHEM_IUPAC_INCHIKEY>  (1) 
LVHBHZANLOWSRM-UHFFFAOYSA-N

>  <PUBCHEM_XLOGP3_AA>  (1) 
-0.1

>  <PUBCHEM_EXACT_MASS>  (1) 
130.026609

>  <PUBCHEM_MOLECULAR_FORMULA>  (1) 
C5H6O4

>  <PUBCHEM_MOLECULAR_WEIGHT>  (1) 
130.1

>  <PUBCHEM_OPENEYE_CAN_SMILES>  (1) 
C=C(CC(=O)O)C(=O)O

>  <PUBCHEM_OPENEYE_ISO_SMILES>  (1) 
C=C(CC(=O)O)C(=O)O

>  <PUBCHEM_CACTVS_TPSA>  (1) 
74.6

>  <PUBCHEM_MONOISOTOPIC_WEIGHT>  (1) 
130.026609

>  <PUBCHEM_TOTAL_CHARGE>  (1) 
0

>  <PUBCHEM_HEAVY_ATOM_COUNT>  (1) 
9

>  <PUBCHEM_ATOM_DEF_STEREO_COUNT>  (1) 
0

>  <PUBCHEM_ATOM_UDEF_STEREO_COUNT>  (1) 
0

>  <PUBCHEM_BOND_DEF_STEREO_COUNT>  (1) 
0

>  <PUBCHEM_BOND_UDEF_STEREO_COUNT>  (1) 
0

>  <PUBCHEM_ISOTOPIC_ATOM_COUNT>  (1) 
0

>  <PUBCHEM_COMPONENT_COUNT>  (1) 
1

>  <PUBCHEM_CACTVS_TAUTO_COUNT>  (1) 
-1

>  <PUBCHEM_COORDINATE_TYPE>  (1) 
1
5
255

$$$$
