816
     RDKit          2D

 33 35  0  0  1  0  0  0  0  0999 V2000
    1.4083    0.7174    0.0000 O   0  0  0  0  0  0  0  0  0  0  0  0
   -3.0010   -2.0318    0.0000 O   0  0  0  0  0  0  0  0  0  0  0  0
   -1.5900    0.6156    0.0000 O   0  0  0  0  0  0  0  0  0  0  0  0
    3.7011   -0.5046    0.0000 O   0  0  0  0  0  0  0  0  0  0  0  0
   -3.0891    0.5648    0.0000 O   0  0  0  0  0  0  0  0  0  0  0  0
   -5.9993   -2.1335    0.0000 O   0  0  0  0  0  0  0  0  0  0  0  0
    5.8176    3.4666    0.0000 O   0  0  0  0  0  0  0  0  0  0  0  0
    7.4049    0.9208    0.0000 O   0  0  0  0  0  0  0  0  0  0  0  0
   -6.1755    3.0596    0.0000 O   0  0  0  0  0  0  0  0  0  0  0  0
   -1.6781    3.2122    0.0000 O   0  0  0  0  0  0  0  0  0  0  0  0
    2.9955   -1.8283    0.0000 N   0  0  0  0  0  0  0  0  0  0  0  0
   -1.4138   -4.5775    0.0000 N   0  0  0  0  0  0  0  0  0  0  0  0
    2.8193    3.3648    0.0000 N   0  0  0  0  0  0  0  0  0  0  0  0
   -7.5865    0.4122    0.0000 N   0  0  0  0  0  0  0  0  0  0  0  0
    5.2883   -3.0503    0.0000 N   0  0  0  0  0  0  0  0  0  0  0  0
    0.7028   -0.6064    0.0000 C   0  0  0  0  0  0  0  0  0  0  0  0
   -1.5019   -1.9809    0.0000 C   0  0  0  0  0  0  0  0  0  0  0  0
   -0.7964   -0.6572    0.0000 C   0  0  0  0  0  0  0  0  0  0  0  0
    1.4964   -1.8792    0.0000 C   0  0  0  0  0  0  0  0  0  0  0  0
   -0.7082   -3.2538    0.0000 C   0  0  0  0  0  0  0  0  0  0  0  0
    0.7909   -3.2029    0.0000 C   0  0  0  0  0  0  0  0  0  0  0  0
    2.9074    0.7682    0.0000 C   0  0  0  0  0  0  0  0  0  0  0  0
   -3.7946   -0.7590    0.0000 C   0  0  0  0  0  0  0  0  0  0  0  0
    3.6130    2.0920    0.0000 C   0  0  0  0  0  0  0  0  0  0  0  0
   -5.2938   -0.8098    0.0000 C   0  0  0  0  0  0  0  0  0  0  0  0
    5.1121    2.1428    0.0000 C   0  0  0  0  0  0  0  0  0  0  0  0
   -6.0874    0.4630    0.0000 C   0  0  0  0  0  0  0  0  0  0  0  0
    5.9057    0.8700    0.0000 C   0  0  0  0  0  0  0  0  0  0  0  0
    5.2002   -0.4538    0.0000 C   0  0  0  0  0  0  0  0  0  0  0  0
   -5.3819    1.7868    0.0000 C   0  0  0  0  0  0  0  0  0  0  0  0
   -3.8827    1.8376    0.0000 C   0  0  0  0  0  0  0  0  0  0  0  0
    5.9938   -1.7266    0.0000 C   0  0  0  0  0  0  0  0  0  0  0  0
   -3.1772    3.1614    0.0000 C   0  0  0  0  0  0  0  0  0  0  0  0
  1 16  1  0
  1 22  1  0
  2 17  1  0
  2 23  1  0
  3 18  1  0
  4 22  1  0
  4 29  1  0
  5 23  1  0
  5 31  1  0
  6 25  1  0
  7 26  1  0
  8 28  1  0
  9 30  1  0
 10 33  1  0
 11 19  1  0
 12 20  1  0
 13 24  1  0
 14 27  1  0
 15 32  1  0
 16 18  1  0
 16 19  1  0
 17 18  1  0
 17 20  1  0
 19 21  1  0
 20 21  1  0
 22 24  1  0
 23 25  1  0
 24 26  1  0
 25 27  1  0
 26 28  1  0
 27 30  1  0
 28 29  1  0
 29 32  1  0
 30 31  1  0
 31 33  1  0
M  END
>  <PUBCHEM_COMPOUND_CID>  (1) 
816

>  <PUBCHEM_COMPOUND_CANONICALIZED>  (1) 
1

>  <PUBCHEM_CACTVS_COMPLEXITY>  (1) 
639

>  <PUBCHEM_CACTVS_HBOND_ACCEPTOR>  (1) 
15

>  <PUBCHEM_CACTVS_HBOND_DONOR>  (1) 
11

>  <PUBCHEM_CACTVS_ROTATABLE_BOND>  (1) 
6

>  <PUBCHEM_CACTVS_SUBSKEYS>  (1) 
AAADcfB7vAAAAAAAAAAAAAAAAAAAAAAAAAA0SIAAAAAAAAAAAAAAHgAQCAAACDzxgAcACABABgAAAAAAAAAAAAAAAAAAAIAAAAATEAIAwAAjQAAHEAAHAAHwcA0AAAAAAAAAAAAAgAAUCACgAAAAAAAAAA==

>  <PUBCHEM_IUPAC_OPENEYE_NAME>  (1) 
5-amino-2-(aminomethyl)-6-[4,6-diamino-3-[4-amino-3,5-dihydroxy-6-(hydroxymethyl)tetrahydropyran-2-yl]oxy-2-hydroxy-cyclohexoxy]tetrahydropyran-3,4-diol

>  <PUBCHEM_IUPAC_CAS_NAME>  (1) 
5-amino-2-(aminomethyl)-6-[4,6-diamino-3-[[4-amino-3,5-dihydroxy-6-(hydroxymethyl)-2-oxanyl]oxy]-2-hydroxycyclohexyl]oxyoxane-3,4-diol

>  <PUBCHEM_IUPAC_NAME_MARKUP>  (1) 
5-amino-2-(aminomethyl)-6-[4,6-diamino-3-[4-amino-3,5-dihydroxy-6-(hydroxymethyl)oxan-2-yl]oxy-2-hydroxycyclohexyl]oxyoxane-3,4-diol

>  <PUBCHEM_IUPAC_NAME>  (1) 
5-amino-2-(aminomethyl)-6-[4,6-diamino-3-[4-amino-3,5-dihydroxy-6-(hydroxymethyl)oxan-2-yl]oxy-2-hydroxycyclohexyl]oxyoxane-3,4-diol

>  <PUBCHEM_IUPAC_SYSTEMATIC_NAME>  (1) 
2-(aminomethyl)-5-azanyl-6-[4,6-bis(azanyl)-3-[4-azanyl-6-(hydroxymethyl)-3,5-bis(oxidanyl)oxan-2-yl]oxy-2-oxidanyl-cyclohexyl]oxy-oxane-3,4-diol

>  <PUBCHEM_IUPAC_TRADITIONAL_NAME>  (1) 
5-amino-2-(aminomethyl)-6-[4,6-diamino-3-(4-amino-3,5-dihydroxy-6-methylol-tetrahydropyran-2-yl)oxy-2-hydroxy-cyclohexoxy]tetrahydropyran-3,4-diol

>  <PUBCHEM_IUPAC_INCHI>  (1) 
InChI=1S/C18H37N5O10/c19-2-6-11(26)12(27)9(23)17(30-6)32-15-4(20)1-5(21)16(14(15)29)33-18-13(28)8(22)10(25)7(3-24)31-18/h4-18,24-29H,1-3,19-23H2

>  <PUBCHEM_IUPAC_INCHIKEY>  (1) 
SKKLOUVUUNMCJE-UHFFFAOYSA-N

>  <PUBCHEM_XLOGP3_AA>  (1) 
-7.2

>  <PUBCHEM_EXACT_MASS>  (1) 
483.254042

>  <PUBCHEM_MOLECULAR_FORMULA>  (1) 
C18H37N5O10

>  <PUBCHEM_MOLECULAR_WEIGHT>  (1) 
483.5

>  <PUBCHEM_OPENEYE_CAN_SMILES>  (1) 
C1C(C(C(C(C1N)OC2C(C(C(C(O2)CO)O)N)O)O)OC3C(C(C(C(O3)CN)O)O)N)N

>  <PUBCHEM_OPENEYE_ISO_SMILES>  (1) 
C1C(C(C(C(C1N)OC2C(C(C(C(O2)CO)O)N)O)O)OC3C(C(C(C(O3)CN)O)O)N)N

>  <PUBCHEM_CACTVS_TPSA>  (1) 
288

>  <PUBCHEM_MONOISOTOPIC_WEIGHT>  (1) 
483.254042

>  <PUBCHEM_TOTAL_CHARGE>  (1) 
0

>  <PUBCHEM_HEAVY_ATOM_COUNT>  (1) 
33

>  <PUBCHEM_ATOM_DEF_STEREO_COUNT>  (1) 
0

>  <PUBCHEM_ATOM_UDEF_STEREO_COUNT>  (1) 
15

>  <PUBCHEM_BOND_DEF_STEREO_COUNT>  (1) 
0

>  <PUBCHEM_BOND_UDEF_STEREO_COUNT>  (1) 
0

>  <PUBCHEM_ISOTOPIC_ATOM_COUNT>  (1) 
0

>  <PUBCHEM_COMPONENT_COUNT>  (1) 
1

>  <PUBCHEM_CACTVS_TAUTO_COUNT>  (1) 
-1

>  <PUBCHEM_COORDINATE_TYPE>  (1) 
1
5
255

>  <PUBCHEM_BONDANNOTATIONS>  (1) 
16  1  3
22  1  3
19  11  3
20  12  3
24  13  3
27  14  3
17  2  3
23  2  3
29  32  3
18  3  3
31  33  3
25  6  3
26  7  3
28  8  3
30  9  3

$$$$
