820
     RDKit          2D

138141  0  0  1  0  0  0  0  0999 V2000
   10.2214   -0.6786    0.0000 P   0  0  0  0  0  0  0  0  0  0  0  0
   -1.1578    5.5873    0.0000 P   0  0  0  0  0  0  0  0  0  0  0  0
    6.9865    6.9568    0.0000 O   0  0  0  0  0  0  0  0  0  0  0  0
   11.2455    5.5037    0.0000 O   0  0  0  0  0  0  0  0  0  0  0  0
    9.3926    3.2025    0.0000 O   0  0  0  0  0  0  0  0  0  0  0  0
    5.6697    1.8277    0.0000 O   0  0  0  0  0  0  0  0  0  0  0  0
    5.0811    7.2531    0.0000 O   0  0  0  0  0  0  0  0  0  0  0  0
    9.2451    8.9313    0.0000 O   0  0  0  0  0  0  0  0  0  0  0  0
    3.4465    0.4834    0.0000 O   0  0  0  0  0  0  0  0  0  0  0  0
    9.4453    0.6049    0.0000 O   0  0  0  0  0  0  0  0  0  0  0  0
    7.9982   -2.0230    0.0000 O   0  0  0  0  0  0  0  0  0  0  0  0
    0.3945    3.0201    0.0000 O   0  0  0  0  0  0  0  0  0  0  0  0
    2.9105    3.3112    0.0000 O   0  0  0  0  0  0  0  0  0  0  0  0
    1.3582    5.8784    0.0000 O   0  0  0  0  0  0  0  0  0  0  0  0
   11.7941    9.4342    0.0000 O   0  0  0  0  0  0  0  0  0  0  0  0
   11.0540    2.0936    0.0000 O   0  0  0  0  0  0  0  0  0  0  0  0
    1.3055    8.4759    0.0000 O   0  0  0  0  0  0  0  0  0  0  0  0
   -1.7761   -0.9218    0.0000 O   0  0  0  0  0  0  0  0  0  0  0  0
    1.2233   -0.8610    0.0000 O   0  0  0  0  0  0  0  0  0  0  0  0
   12.6834    4.1172    0.0000 O   0  0  0  0  0  0  0  0  0  0  0  0
    6.7951    3.5467    0.0000 O   0  0  0  0  0  0  0  0  0  0  0  0
   14.6334    8.4655    0.0000 O   0  0  0  0  0  0  0  0  0  0  0  0
   -1.8814    4.2733    0.0000 O   0  0  0  0  0  0  0  0  0  0  0  0
    7.9044    5.1392    0.0000 O   0  0  0  0  0  0  0  0  0  0  0  0
    2.7526   11.1039    0.0000 O   0  0  0  0  0  0  0  0  0  0  0  0
    8.9379   -1.4548    0.0000 O   0  0  0  0  0  0  0  0  0  0  0  0
   10.9976   -1.9622    0.0000 O   0  0  0  0  0  0  0  0  0  0  0  0
    2.7230   -0.8306    0.0000 O   0  0  0  0  0  0  0  0  0  0  0  0
   11.5050    0.0975    0.0000 O   0  0  0  0  0  0  0  0  0  0  0  0
    5.7750   -3.3674    0.0000 O   0  0  0  0  0  0  0  0  0  0  0  0
    0.4998   -2.1749    0.0000 O   0  0  0  0  0  0  0  0  0  0  0  0
    5.8276   -5.9649    0.0000 O   0  0  0  0  0  0  0  0  0  0  0  0
   -3.3811    4.2429    0.0000 O   0  0  0  0  0  0  0  0  0  0  0  0
   -4.3395    0.1055    0.0000 O   0  0  0  0  0  0  0  0  0  0  0  0
    0.1561    4.8638    0.0000 O   0  0  0  0  0  0  0  0  0  0  0  0
   -0.4343    6.9013    0.0000 O   0  0  0  0  0  0  0  0  0  0  0  0
   -2.4718    6.3108    0.0000 O   0  0  0  0  0  0  0  0  0  0  0  0
   -5.6569    5.4961    0.0000 O   0  0  0  0  0  0  0  0  0  0  0  0
   -6.2752   -1.0129    0.0000 O   0  0  0  0  0  0  0  0  0  0  0  0
   -1.7235   -3.5193    0.0000 O   0  0  0  0  0  0  0  0  0  0  0  0
    4.9988   -2.0838    0.0000 N   0  0  0  0  0  0  0  0  0  0  0  0
   -3.3284    1.6454    0.0000 N   0  0  0  0  0  0  0  0  0  0  0  0
    8.4062    6.4724    0.0000 C   0  0  0  0  0  0  0  0  0  0  0  0
    9.5355    7.4597    0.0000 C   0  0  0  0  0  0  0  0  0  0  0  0
    8.6965    5.0008    0.0000 C   0  0  0  0  0  0  0  0  0  0  0  0
   10.1162    4.5164    0.0000 C   0  0  0  0  0  0  0  0  0  0  0  0
   10.9551    6.9753    0.0000 C   0  0  0  0  0  0  0  0  0  0  0  0
    7.1694    1.8581    0.0000 C   0  0  0  0  0  0  0  0  0  0  0  0
    5.8572    5.9695    0.0000 C   0  0  0  0  0  0  0  0  0  0  0  0
    7.9456    0.5745    0.0000 C   0  0  0  0  0  0  0  0  0  0  0  0
    7.2221   -0.7394    0.0000 C   0  0  0  0  0  0  0  0  0  0  0  0
    5.7224   -0.7698    0.0000 C   0  0  0  0  0  0  0  0  0  0  0  0
    5.1337    4.6556    0.0000 C   0  0  0  0  0  0  0  0  0  0  0  0
    4.9462    0.5138    0.0000 C   0  0  0  0  0  0  0  0  0  0  0  0
    3.5814    7.2227    0.0000 C   0  0  0  0  0  0  0  0  0  0  0  0
    7.8930    3.1721    0.0000 C   0  0  0  0  0  0  0  0  0  0  0  0
    3.6340    4.6252    0.0000 C   0  0  0  0  0  0  0  0  0  0  0  0
    2.8579    5.9088    0.0000 C   0  0  0  0  0  0  0  0  0  0  0  0
   12.0844    7.9626    0.0000 C   0  0  0  0  0  0  0  0  0  0  0  0
   11.2845    3.5757    0.0000 C   0  0  0  0  0  0  0  0  0  0  0  0
    2.8052    8.5063    0.0000 C   0  0  0  0  0  0  0  0  0  0  0  0
    1.1707    1.7366    0.0000 C   0  0  0  0  0  0  0  0  0  0  0  0
    0.4471    0.4226    0.0000 C   0  0  0  0  0  0  0  0  0  0  0  0
    7.0256    5.0288    0.0000 C   0  0  0  0  0  0  0  0  0  0  0  0
    2.6703    1.7670    0.0000 C   0  0  0  0  0  0  0  0  0  0  0  0
   -1.0526    0.3922    0.0000 C   0  0  0  0  0  0  0  0  0  0  0  0
   13.5041    7.4782    0.0000 C   0  0  0  0  0  0  0  0  0  0  0  0
   -1.8287    1.6758    0.0000 C   0  0  0  0  0  0  0  0  0  0  0  0
   -1.1052    2.9897    0.0000 C   0  0  0  0  0  0  0  0  0  0  0  0
    3.5287    9.8203    0.0000 C   0  0  0  0  0  0  0  0  0  0  0  0
    3.4992   -2.1142    0.0000 C   0  0  0  0  0  0  0  0  0  0  0  0
    7.2747   -3.3370    0.0000 C   0  0  0  0  0  0  0  0  0  0  0  0
    2.7756   -3.4281    0.0000 C   0  0  0  0  0  0  0  0  0  0  0  0
    8.0509   -4.6205    0.0000 C   0  0  0  0  0  0  0  0  0  0  0  0
    1.2759   -3.4585    0.0000 C   0  0  0  0  0  0  0  0  0  0  0  0
    7.3273   -5.9345    0.0000 C   0  0  0  0  0  0  0  0  0  0  0  0
   -4.1046    2.9290    0.0000 C   0  0  0  0  0  0  0  0  0  0  0  0
    0.5524   -4.7725    0.0000 C   0  0  0  0  0  0  0  0  0  0  0  0
   -3.2758   -0.9522    0.0000 C   0  0  0  0  0  0  0  0  0  0  0  0
   -5.6043    2.8986    0.0000 C   0  0  0  0  0  0  0  0  0  0  0  0
    8.1035   -7.2181    0.0000 C   0  0  0  0  0  0  0  0  0  0  0  0
   -0.9473   -4.8029    0.0000 C   0  0  0  0  0  0  0  0  0  0  0  0
   -3.9993   -2.2661    0.0000 C   0  0  0  0  0  0  0  0  0  0  0  0
   -6.3804    4.1822    0.0000 C   0  0  0  0  0  0  0  0  0  0  0  0
    7.3800   -8.5320    0.0000 C   0  0  0  0  0  0  0  0  0  0  0  0
   -5.4990   -2.2965    0.0000 C   0  0  0  0  0  0  0  0  0  0  0  0
   -1.6708   -6.1168    0.0000 C   0  0  0  0  0  0  0  0  0  0  0  0
   -7.8801    4.1518    0.0000 C   0  0  0  0  0  0  0  0  0  0  0  0
    8.1561   -9.8156    0.0000 C   0  0  0  0  0  0  0  0  0  0  0  0
   -6.2225   -3.6105    0.0000 C   0  0  0  0  0  0  0  0  0  0  0  0
   -3.1705   -6.1472    0.0000 C   0  0  0  0  0  0  0  0  0  0  0  0
   -0.9999   -2.2053    0.0000 C   0  0  0  0  0  0  0  0  0  0  0  0
   -8.6563    5.4353    0.0000 C   0  0  0  0  0  0  0  0  0  0  0  0
    7.4326  -11.1296    0.0000 C   0  0  0  0  0  0  0  0  0  0  0  0
   -7.7222   -3.6409    0.0000 C   0  0  0  0  0  0  0  0  0  0  0  0
   -3.8940   -7.4612    0.0000 C   0  0  0  0  0  0  0  0  0  0  0  0
   -1.7761   -0.9218    0.0000 C   0  0  0  0  0  0  0  0  0  0  0  0
  -10.1560    5.4049    0.0000 C   0  0  0  0  0  0  0  0  0  0  0  0
    8.2088  -12.4132    0.0000 C   0  0  0  0  0  0  0  0  0  0  0  0
   -8.4457   -4.9548    0.0000 C   0  0  0  0  0  0  0  0  0  0  0  0
   -5.3937   -7.4916    0.0000 C   0  0  0  0  0  0  0  0  0  0  0  0
   -3.2758   -0.9522    0.0000 C   0  0  0  0  0  0  0  0  0  0  0  0
  -10.9322    6.6885    0.0000 C   0  0  0  0  0  0  0  0  0  0  0  0
    7.4853  -13.7271    0.0000 C   0  0  0  0  0  0  0  0  0  0  0  0
   -9.9454   -4.9852    0.0000 C   0  0  0  0  0  0  0  0  0  0  0  0
   -6.1173   -8.8056    0.0000 C   0  0  0  0  0  0  0  0  0  0  0  0
   -4.0519    0.3314    0.0000 C   0  0  0  0  0  0  0  0  0  0  0  0
  -12.4318    6.6581    0.0000 C   0  0  0  0  0  0  0  0  0  0  0  0
    8.2614  -15.0107    0.0000 C   0  0  0  0  0  0  0  0  0  0  0  0
  -10.6690   -6.2992    0.0000 C   0  0  0  0  0  0  0  0  0  0  0  0
   -7.6169   -8.8360    0.0000 C   0  0  0  0  0  0  0  0  0  0  0  0
   -5.5516    0.3010    0.0000 C   0  0  0  0  0  0  0  0  0  0  0  0
  -13.2080    7.9417    0.0000 C   0  0  0  0  0  0  0  0  0  0  0  0
  -12.1687   -6.3296    0.0000 C   0  0  0  0  0  0  0  0  0  0  0  0
    7.5379  -16.3247    0.0000 C   0  0  0  0  0  0  0  0  0  0  0  0
   -8.3405  -10.1499    0.0000 C   0  0  0  0  0  0  0  0  0  0  0  0
   -6.3278    1.5846    0.0000 C   0  0  0  0  0  0  0  0  0  0  0  0
  -14.7077    7.9113    0.0000 C   0  0  0  0  0  0  0  0  0  0  0  0
  -12.8922   -7.6435    0.0000 C   0  0  0  0  0  0  0  0  0  0  0  0
    8.3141  -17.6083    0.0000 C   0  0  0  0  0  0  0  0  0  0  0  0
   -7.8275    1.5542    0.0000 C   0  0  0  0  0  0  0  0  0  0  0  0
  -15.4839    9.1949    0.0000 C   0  0  0  0  0  0  0  0  0  0  0  0
   -9.8402  -10.1803    0.0000 C   0  0  0  0  0  0  0  0  0  0  0  0
  -14.3919   -7.6739    0.0000 C   0  0  0  0  0  0  0  0  0  0  0  0
   -8.6037    2.8378    0.0000 C   0  0  0  0  0  0  0  0  0  0  0  0
    7.5905  -18.9222    0.0000 C   0  0  0  0  0  0  0  0  0  0  0  0
  -16.9836    9.1645    0.0000 C   0  0  0  0  0  0  0  0  0  0  0  0
  -15.1154   -8.9879    0.0000 C   0  0  0  0  0  0  0  0  0  0  0  0
  -10.1034    2.8074    0.0000 C   0  0  0  0  0  0  0  0  0  0  0  0
  -10.5637  -11.4943    0.0000 C   0  0  0  0  0  0  0  0  0  0  0  0
  -17.7597   10.4481    0.0000 C   0  0  0  0  0  0  0  0  0  0  0  0
    8.3667  -20.2058    0.0000 C   0  0  0  0  0  0  0  0  0  0  0  0
  -16.6151   -9.0183    0.0000 C   0  0  0  0  0  0  0  0  0  0  0  0
  -10.8795    4.0910    0.0000 C   0  0  0  0  0  0  0  0  0  0  0  0
  -19.2594   10.4177    0.0000 C   0  0  0  0  0  0  0  0  0  0  0  0
  -12.3792    4.0606    0.0000 C   0  0  0  0  0  0  0  0  0  0  0  0
  -17.3386  -10.3323    0.0000 C   0  0  0  0  0  0  0  0  0  0  0  0
  -13.1554    5.3442    0.0000 C   0  0  0  0  0  0  0  0  0  0  0  0
  1 10  1  0
  1 26  1  0
  1 27  1  0
  1 29  2  0
  2 23  1  0
  2 35  1  0
  2 36  1  0
  2 37  2  0
  3 43  1  0
  3 49  1  0
  4 46  1  0
  4 47  1  0
  5 46  1  0
  5 56  1  0
  6 48  1  0
  6 54  1  0
  7 49  1  0
  7 55  1  0
  8 44  1  0
  9 54  1  0
  9 65  1  0
 10 50  1  0
 11 51  1  0
 11 72  1  0
 12 62  1  0
 12 69  1  0
 13 57  1  0
 14 58  1  0
 15 59  1  0
 16 60  1  0
 17 61  1  0
 18 66  1  0
 18 79  1  0
 19 63  1  0
 20 60  2  0
 21 64  1  0
 22 67  1  0
 23 69  1  0
 24 64  2  0
 25 70  1  0
 28 71  2  0
 30 72  2  0
 31 75  1  0
 31 92  1  0
 32 76  1  0
 33 77  2  0
 34 79  2  0
 38 84  1  0
 39 86  1  0
 40 92  2  0
 41 52  1  0
 41 71  1  0
 42 68  1  0
 42 77  1  0
 43 44  1  0
 43 45  1  0
 44 47  1  0
 45 46  1  0
 46 60  1  0
 47 59  1  0
 48 50  1  0
 48 56  1  0
 49 53  1  0
 49 64  1  0
 50 51  1  0
 51 52  1  0
 52 54  1  0
 53 57  1  0
 55 58  1  0
 55 61  1  0
 57 58  1  0
 59 67  1  0
 61 70  1  0
 62 63  1  0
 62 65  1  0
 63 66  1  0
 66 68  1  0
 68 69  1  0
 71 73  1  0
 72 74  1  0
 73 75  1  0
 74 76  1  0
 75 78  1  0
 76 81  1  0
 77 80  1  0
 78 82  1  0
 79 83  1  0
 80 84  1  0
 81 85  1  0
 82 87  1  0
 83 86  1  0
 84 88  1  0
 85 89  1  0
 86 90  1  0
 87 91  1  0
 88 93  1  0
 89 94  1  0
 90 95  1  0
 91 96  1  0
 92 97  1  0
 93 98  1  0
 94 99  1  0
 95100  1  0
 96101  1  0
 97102  1  0
 98103  1  0
 99104  1  0
100105  1  0
101106  1  0
102107  1  0
103108  1  0
104109  1  0
105110  1  0
106111  1  0
107112  1  0
108113  1  0
109115  1  0
110114  1  0
111116  1  0
112117  1  0
113118  1  0
114119  1  0
115120  1  0
116123  1  0
117121  1  0
118122  1  0
119124  1  0
120126  1  0
121125  1  0
122127  1  0
123130  1  0
124128  1  0
125129  1  0
126132  1  0
127131  1  0
128133  1  0
129134  1  0
131135  1  0
133137  1  0
134136  1  0
136138  1  0
M  END
>  <PUBCHEM_COMPOUND_CID>  (1) 
820

>  <PUBCHEM_COMPOUND_CANONICALIZED>  (1) 
1

>  <PUBCHEM_CACTVS_COMPLEXITY>  (1) 
3410

>  <PUBCHEM_CACTVS_HBOND_ACCEPTOR>  (1) 
38

>  <PUBCHEM_CACTVS_HBOND_DONOR>  (1) 
19

>  <PUBCHEM_CACTVS_ROTATABLE_BOND>  (1) 
84

>  <PUBCHEM_CACTVS_SUBSKEYS>  (1) 
AAADcfB/PgMAAAAAAAAAAAAAAAAAAAAAAAAkSJEgAAAAAAAAAAAAHgAQCCAACDzxgAcCCALABxAIQAGQGIIAAAAAAAAAAIFIAAATEBYAgAQnQAAHNgCXAAH6/K/AAAAAAAAAAAAAAAAAAAAAAAAAAAAAAA==

>  <PUBCHEM_IUPAC_OPENEYE_NAME>  (1) 
2-[2-carboxy-6-(1,2-dihydroxyethyl)-2-[[5-(3-dodecanoyloxytetradecanoylamino)-6-[[3-hydroxy-5-(3-hydroxytetradecanoylamino)-4-(3-hydroxytetradecanoyloxy)-6-phosphonooxy-tetrahydropyran-2-yl]methoxy]-4-(3-hydroxytetradecanoyloxy)-3-phosphonooxy-tetrahydropyran-2-yl]methoxy]-5-hydroxy-tetrahydropyran-4-yl]oxy-6-(1,2-dihydroxyethyl)-4,5-dihydroxy-tetrahydropyran-2-carboxylic acid

>  <PUBCHEM_IUPAC_CAS_NAME>  (1) 
2-[[2-carboxy-6-(1,2-dihydroxyethyl)-5-hydroxy-2-[[6-[[3-hydroxy-4-(3-hydroxy-1-oxotetradecoxy)-5-[(3-hydroxy-1-oxotetradecyl)amino]-6-phosphonooxy-2-oxanyl]methoxy]-4-(3-hydroxy-1-oxotetradecoxy)-5-[[1-oxo-3-(1-oxododecoxy)tetradecyl]amino]-3-phosphonooxy-2-oxanyl]methoxy]-4-oxanyl]oxy]-6-(1,2-dihydroxyethyl)-4,5-dihydroxy-2-oxanecarboxylic acid

>  <PUBCHEM_IUPAC_NAME_MARKUP>  (1) 
2-[2-carboxy-6-(1,2-dihydroxyethyl)-2-[[5-(3-dodecanoyloxytetradecanoylamino)-6-[[3-hydroxy-5-(3-hydroxytetradecanoylamino)-4-(3-hydroxytetradecanoyloxy)-6-phosphonooxyoxan-2-yl]methoxy]-4-(3-hydroxytetradecanoyloxy)-3-phosphonooxyoxan-2-yl]methoxy]-5-hydroxyoxan-4-yl]oxy-6-(1,2-dihydroxyethyl)-4,5-dihydroxyoxane-2-carboxylic acid

>  <PUBCHEM_IUPAC_NAME>  (1) 
2-[2-carboxy-6-(1,2-dihydroxyethyl)-2-[[5-(3-dodecanoyloxytetradecanoylamino)-6-[[3-hydroxy-5-(3-hydroxytetradecanoylamino)-4-(3-hydroxytetradecanoyloxy)-6-phosphonooxyoxan-2-yl]methoxy]-4-(3-hydroxytetradecanoyloxy)-3-phosphonooxyoxan-2-yl]methoxy]-5-hydroxyoxan-4-yl]oxy-6-(1,2-dihydroxyethyl)-4,5-dihydroxyoxane-2-carboxylic acid

>  <PUBCHEM_IUPAC_SYSTEMATIC_NAME>  (1) 
6-[1,2-bis(oxidanyl)ethyl]-2-[6-[1,2-bis(oxidanyl)ethyl]-2-carboxy-2-[[5-(3-dodecanoyloxytetradecanoylamino)-6-[[3-oxidanyl-5-(3-oxidanyltetradecanoylamino)-4-(3-oxidanyltetradecanoyloxy)-6-phosphonooxy-oxan-2-yl]methoxy]-4-(3-oxidanyltetradecanoyloxy)-3-phosphonooxy-oxan-2-yl]methoxy]-5-oxidanyl-oxan-4-yl]oxy-4,5-bis(oxidanyl)oxane-2-carboxylic acid

>  <PUBCHEM_IUPAC_TRADITIONAL_NAME>  (1) 
2-[2-carboxy-6-(1,2-dihydroxyethyl)-5-hydroxy-2-[[6-[[3-hydroxy-5-(3-hydroxytetradecanoylamino)-4-(3-hydroxytetradecanoyloxy)-6-phosphonooxy-tetrahydropyran-2-yl]methoxy]-4-(3-hydroxytetradecanoyloxy)-5-(3-lauroyloxytetradecanoylamino)-3-phosphonooxy-tetrahydropyran-2-yl]methoxy]tetrahydropyran-4-yl]oxy-6-(1,2-dihydroxyethyl)-4,5-dihydroxy-tetrahydropyran-2-carboxylic acid

>  <PUBCHEM_IUPAC_INCHI>  (1) 
InChI=1S/C96H176N2O38P2/c1-6-11-16-21-26-31-36-41-46-51-66(101)56-76(107)97-81-89(130-79(110)57-67(102)52-47-42-37-32-27-22-17-12-7-2)85(114)74(128-92(81)136-138(122,123)124)64-125-91-82(98-77(108)59-69(54-49-44-39-34-29-24-19-14-9-4)127-78(109)55-50-45-40-35-30-25-20-15-10-5)90(131-80(111)58-68(103)53-48-43-38-33-28-23-18-13-8-3)88(135-137(119,120)121)75(129-91)65-126-95(93(115)116)61-73(84(113)87(133-95)72(106)63-100)132-96(94(117)118)60-70(104)83(112)86(134-96)71(105)62-99/h66-75,81-92,99-106,112-114H,6-65H2,1-5H3,(H,97,107)(H,98,108)(H,115,116)(H,117,118)(H2,119,120,121)(H2,122,123,124)

>  <PUBCHEM_IUPAC_INCHIKEY>  (1) 
JVUUYJGQIVCMIU-UHFFFAOYSA-N

>  <PUBCHEM_XLOGP3_AA>  (1) 
15.9

>  <PUBCHEM_EXACT_MASS>  (1) 
2028.140988

>  <PUBCHEM_MOLECULAR_FORMULA>  (1) 
C96H176N2O38P2

>  <PUBCHEM_MOLECULAR_WEIGHT>  (1) 
2028.4

>  <PUBCHEM_OPENEYE_CAN_SMILES>  (1) 
CCCCCCCCCCCC(CC(=O)NC1C(C(C(OC1OP(=O)(O)O)COC2C(C(C(C(O2)COC3(CC(C(C(O3)C(CO)O)O)OC4(CC(C(C(O4)C(CO)O)O)O)C(=O)O)C(=O)O)OP(=O)(O)O)OC(=O)CC(CCCCCCCCCCC)O)NC(=O)CC(CCCCCCCCCCC)OC(=O)CCCCCCCCCCC)O)OC(=O)CC(CCCCCCCCCCC)O)O

>  <PUBCHEM_OPENEYE_ISO_SMILES>  (1) 
CCCCCCCCCCCC(CC(=O)NC1C(C(C(OC1OP(=O)(O)O)COC2C(C(C(C(O2)COC3(CC(C(C(O3)C(CO)O)O)OC4(CC(C(C(O4)C(CO)O)O)O)C(=O)O)C(=O)O)OP(=O)(O)O)OC(=O)CC(CCCCCCCCCCC)O)NC(=O)CC(CCCCCCCCCCC)OC(=O)CCCCCCCCCCC)O)OC(=O)CC(CCCCCCCCCCC)O)O

>  <PUBCHEM_CACTVS_TPSA>  (1) 
632

>  <PUBCHEM_MONOISOTOPIC_WEIGHT>  (1) 
2027.137633

>  <PUBCHEM_TOTAL_CHARGE>  (1) 
0

>  <PUBCHEM_HEAVY_ATOM_COUNT>  (1) 
138

>  <PUBCHEM_ATOM_DEF_STEREO_COUNT>  (1) 
0

>  <PUBCHEM_ATOM_UDEF_STEREO_COUNT>  (1) 
24

>  <PUBCHEM_BOND_DEF_STEREO_COUNT>  (1) 
0

>  <PUBCHEM_BOND_UDEF_STEREO_COUNT>  (1) 
0

>  <PUBCHEM_ISOTOPIC_ATOM_COUNT>  (1) 
0

>  <PUBCHEM_COMPONENT_COUNT>  (1) 
1

>  <PUBCHEM_CACTVS_TAUTO_COUNT>  (1) 
-1

>  <PUBCHEM_COORDINATE_TYPE>  (1) 
1
5
255

>  <PUBCHEM_BONDANNOTATIONS>  (1) 
50  10  3
51  11  3
57  13  3
58  14  3
59  15  3
61  17  3
66  18  3
63  19  3
69  23  3
43  3  3
76  32  3
84  38  3
86  39  3
47  4  3
52  41  3
68  42  3
46  60  3
48  56  3
49  64  3
62  65  3
55  7  3
75  78  3
44  8  3
54  9  3

$$$$
