823
     RDKit          2D

 16 15  0  0  1  0  0  0  0  0999 V2000
    0.3923    1.3439    0.0000 P   0  0  0  0  0  0  0  0  0  0  0  0
   -1.0977    1.5172    0.0000 O   0  0  0  0  0  0  0  0  0  0  0  0
    1.8822    1.1706    0.0000 O   0  0  0  0  0  0  0  0  0  0  0  0
    0.5655    2.8339    0.0000 O   0  0  0  0  0  0  0  0  0  0  0  0
    4.8621    0.8241    0.0000 O   0  0  0  0  0  0  0  0  0  0  0  0
    0.2190   -0.1460    0.0000 O   0  0  0  0  0  0  0  0  0  0  0  0
    6.0520   -1.9299    0.0000 O   0  0  0  0  0  0  0  0  0  0  0  0
   -4.3778   -0.7169    0.0000 N   0  0  0  0  0  0  0  0  0  0  0  0
   -3.4827    0.4868    0.0000 C   0  0  0  0  0  0  0  0  0  0  0  0
   -5.5815    0.1781    0.0000 C   0  0  0  0  0  0  0  0  0  0  0  0
   -3.1741   -1.6120    0.0000 C   0  0  0  0  0  0  0  0  0  0  0  0
   -5.2728   -1.9206    0.0000 C   0  0  0  0  0  0  0  0  0  0  0  0
   -1.9928    0.3135    0.0000 C   0  0  0  0  0  0  0  0  0  0  0  0
    3.9671   -0.3796    0.0000 C   0  0  0  0  0  0  0  0  0  0  0  0
    2.4771   -0.2063    0.0000 C   0  0  0  0  0  0  0  0  0  0  0  0
    4.5620   -1.7566    0.0000 C   0  0  0  0  0  0  0  0  0  0  0  0
  1  2  1  0
  1  3  1  0
  1  4  1  0
  1  6  2  0
  2 13  1  0
  3 15  1  0
  5 14  1  0
  7 16  1  0
  8  9  1  0
  8 10  1  0
  8 11  1  0
  8 12  1  0
  9 13  1  0
 14 15  1  0
 14 16  1  0
M  CHG  1   8   1
M  END
>  <PUBCHEM_COMPOUND_CID>  (1) 
823

>  <PUBCHEM_COMPOUND_CANONICALIZED>  (1) 
1

>  <PUBCHEM_CACTVS_COMPLEXITY>  (1) 
241

>  <PUBCHEM_CACTVS_HBOND_ACCEPTOR>  (1) 
6

>  <PUBCHEM_CACTVS_HBOND_DONOR>  (1) 
3

>  <PUBCHEM_CACTVS_ROTATABLE_BOND>  (1) 
8

>  <PUBCHEM_CACTVS_SUBSKEYS>  (1) 
AAADceByOAIAAAAAAAAAAAAAAAAAAAAAAAAAAAAAAAAAAAAAAAAAHgAACCAACBThgAYCAAMAAxAAQAAAAIAAAAAAAAAAAAAIAAADEAAAAAAAQAABAAARAAAAAAAAAAAAAAAAAAAAAAAAAAAAAAAAAAAAAA==

>  <PUBCHEM_IUPAC_OPENEYE_NAME>  (1) 
2-[2,3-dihydroxypropoxy(hydroxy)phosphoryl]oxyethyl-trimethyl-ammonium

>  <PUBCHEM_IUPAC_CAS_NAME>  (1) 
2-[2,3-dihydroxypropoxy(hydroxy)phosphoryl]oxyethyl-trimethylammonium

>  <PUBCHEM_IUPAC_NAME_MARKUP>  (1) 
2-[2,3-dihydroxypropoxy(hydroxy)phosphoryl]oxyethyl-trimethylazanium

>  <PUBCHEM_IUPAC_NAME>  (1) 
2-[2,3-dihydroxypropoxy(hydroxy)phosphoryl]oxyethyl-trimethylazanium

>  <PUBCHEM_IUPAC_SYSTEMATIC_NAME>  (1) 
2-[2,3-bis(oxidanyl)propoxy-oxidanyl-phosphoryl]oxyethyl-trimethyl-azanium

>  <PUBCHEM_IUPAC_TRADITIONAL_NAME>  (1) 
2-[glyceryloxy(hydroxy)phosphoryl]oxyethyl-trimethyl-ammonium

>  <PUBCHEM_IUPAC_INCHI>  (1) 
InChI=1S/C8H20NO6P/c1-9(2,3)4-5-14-16(12,13)15-7-8(11)6-10/h8,10-11H,4-7H2,1-3H3/p+1

>  <PUBCHEM_IUPAC_INCHIKEY>  (1) 
SUHOQUVVVLNYQR-UHFFFAOYSA-O

>  <PUBCHEM_XLOGP3_AA>  (1) 
-2.3

>  <PUBCHEM_EXACT_MASS>  (1) 
258.110649

>  <PUBCHEM_MOLECULAR_FORMULA>  (1) 
C8H21NO6P+

>  <PUBCHEM_MOLECULAR_WEIGHT>  (1) 
258.23

>  <PUBCHEM_OPENEYE_CAN_SMILES>  (1) 
C[N+](C)(C)CCOP(=O)(O)OCC(CO)O

>  <PUBCHEM_OPENEYE_ISO_SMILES>  (1) 
C[N+](C)(C)CCOP(=O)(O)OCC(CO)O

>  <PUBCHEM_CACTVS_TPSA>  (1) 
96.2

>  <PUBCHEM_MONOISOTOPIC_WEIGHT>  (1) 
258.110649

>  <PUBCHEM_TOTAL_CHARGE>  (1) 
1

>  <PUBCHEM_HEAVY_ATOM_COUNT>  (1) 
16

>  <PUBCHEM_ATOM_DEF_STEREO_COUNT>  (1) 
0

>  <PUBCHEM_ATOM_UDEF_STEREO_COUNT>  (1) 
1

>  <PUBCHEM_BOND_DEF_STEREO_COUNT>  (1) 
0

>  <PUBCHEM_BOND_UDEF_STEREO_COUNT>  (1) 
0

>  <PUBCHEM_ISOTOPIC_ATOM_COUNT>  (1) 
0

>  <PUBCHEM_COMPONENT_COUNT>  (1) 
1

>  <PUBCHEM_CACTVS_TAUTO_COUNT>  (1) 
-1

>  <PUBCHEM_COORDINATE_TYPE>  (1) 
1
5
255

>  <PUBCHEM_BONDANNOTATIONS>  (1) 
14  5  3

$$$$
