828
     RDKit          2D

 20 19  0  0  1  0  0  0  0  0999 V2000
   -8.2299    0.2344    0.0000 O   0  0  0  0  0  0  0  0  0  0  0  0
   -6.7530   -1.9031    0.0000 O   0  0  0  0  0  0  0  0  0  0  0  0
    4.9607   -1.7039    0.0000 O   0  0  0  0  0  0  0  0  0  0  0  0
    2.3712   -1.9143    0.0000 O   0  0  0  0  0  0  0  0  0  0  0  0
    7.3073    1.4966    0.0000 O   0  0  0  0  0  0  0  0  0  0  0  0
    6.1947   -0.8512    0.0000 O   0  0  0  0  0  0  0  0  0  0  0  0
    2.1282    1.0759    0.0000 N   0  0  0  0  0  0  0  0  0  0  0  0
   -0.4613    0.8655    0.0000 N   0  0  0  0  0  0  0  0  0  0  0  0
   -5.7619    1.9398    0.0000 N   0  0  0  0  0  0  0  0  0  0  0  0
    1.0157   -1.2719    0.0000 N   0  0  0  0  0  0  0  0  0  0  0  0
   -4.2849   -0.1976    0.0000 C   0  0  0  0  0  0  0  0  0  0  0  0
   -3.0509    0.6551    0.0000 C   0  0  0  0  0  0  0  0  0  0  0  0
   -5.6404    0.4447    0.0000 C   0  0  0  0  0  0  0  0  0  0  0  0
   -1.6954    0.0128    0.0000 C   0  0  0  0  0  0  0  0  0  0  0  0
    3.4837    0.4335    0.0000 C   0  0  0  0  0  0  0  0  0  0  0  0
    4.7178    1.2862    0.0000 C   0  0  0  0  0  0  0  0  0  0  0  0
    0.8942    0.2231    0.0000 C   0  0  0  0  0  0  0  0  0  0  0  0
   -6.8744   -0.4080    0.0000 C   0  0  0  0  0  0  0  0  0  0  0  0
    3.6052   -1.0616    0.0000 C   0  0  0  0  0  0  0  0  0  0  0  0
    6.0733    0.6439    0.0000 C   0  0  0  0  0  0  0  0  0  0  0  0
  1 18  1  0
  2 18  2  0
  3 19  1  0
  4 19  2  0
  5 20  1  0
  6 20  2  0
  7 15  1  0
  7 17  1  0
  8 14  1  0
  8 17  2  0
  9 13  1  0
 10 17  1  0
 11 12  1  0
 11 13  1  0
 12 14  1  0
 13 18  1  0
 15 16  1  0
 15 19  1  0
 16 20  1  0
M  END
>  <PUBCHEM_COMPOUND_CID>  (1) 
828

>  <PUBCHEM_COMPOUND_CANONICALIZED>  (1) 
1

>  <PUBCHEM_CACTVS_COMPLEXITY>  (1) 
397

>  <PUBCHEM_CACTVS_HBOND_ACCEPTOR>  (1) 
8

>  <PUBCHEM_CACTVS_HBOND_DONOR>  (1) 
6

>  <PUBCHEM_CACTVS_ROTATABLE_BOND>  (1) 
10

>  <PUBCHEM_CACTVS_SUBSKEYS>  (1) 
AAADceBzuAAAAAAAAAAAAAAAAAAAAAAAAAAAAAAAAAAAAAAAAAAAHgAQCAAACCjBgAQBCALAAgAoAACQLAAAAAEAAAABAIGIAACCABoAiCAEQAAGEAIQAADbEQAAAAAAAAAAAAAAAAAAAAAAAAAAAAAAAA==

>  <PUBCHEM_IUPAC_OPENEYE_NAME>  (1) 
2-[[N'-(4-amino-4-carboxy-butyl)carbamimidoyl]amino]butanedioic acid

>  <PUBCHEM_IUPAC_CAS_NAME>  (1) 
2-[[amino-(4-amino-4-carboxybutyl)iminomethyl]amino]butanedioic acid

>  <PUBCHEM_IUPAC_NAME_MARKUP>  (1) 
2-[[<I>N</I>&apos;-(4-amino-4-carboxybutyl)carbamimidoyl]amino]butanedioic acid

>  <PUBCHEM_IUPAC_NAME>  (1) 
2-[[N'-(4-amino-4-carboxybutyl)carbamimidoyl]amino]butanedioic acid

>  <PUBCHEM_IUPAC_SYSTEMATIC_NAME>  (1) 
2-[[N'-(4-azanyl-5-oxidanyl-5-oxidanylidene-pentyl)carbamimidoyl]amino]butanedioic acid

>  <PUBCHEM_IUPAC_TRADITIONAL_NAME>  (1) 
2-[[N'-(4-amino-4-carboxy-butyl)amidino]amino]succinic acid

>  <PUBCHEM_IUPAC_INCHI>  (1) 
InChI=1S/C10H18N4O6/c11-5(8(17)18)2-1-3-13-10(12)14-6(9(19)20)4-7(15)16/h5-6H,1-4,11H2,(H,15,16)(H,17,18)(H,19,20)(H3,12,13,14)

>  <PUBCHEM_IUPAC_INCHIKEY>  (1) 
KDZOASGQNOPSCU-UHFFFAOYSA-N

>  <PUBCHEM_XLOGP3_AA>  (1) 
-4.7

>  <PUBCHEM_EXACT_MASS>  (1) 
290.122634

>  <PUBCHEM_MOLECULAR_FORMULA>  (1) 
C10H18N4O6

>  <PUBCHEM_MOLECULAR_WEIGHT>  (1) 
290.27

>  <PUBCHEM_OPENEYE_CAN_SMILES>  (1) 
C(CC(C(=O)O)N)CN=C(N)NC(CC(=O)O)C(=O)O

>  <PUBCHEM_OPENEYE_ISO_SMILES>  (1) 
C(CC(C(=O)O)N)CN=C(N)NC(CC(=O)O)C(=O)O

>  <PUBCHEM_CACTVS_TPSA>  (1) 
188

>  <PUBCHEM_MONOISOTOPIC_WEIGHT>  (1) 
290.122634

>  <PUBCHEM_TOTAL_CHARGE>  (1) 
0

>  <PUBCHEM_HEAVY_ATOM_COUNT>  (1) 
20

>  <PUBCHEM_ATOM_DEF_STEREO_COUNT>  (1) 
0

>  <PUBCHEM_ATOM_UDEF_STEREO_COUNT>  (1) 
2

>  <PUBCHEM_BOND_DEF_STEREO_COUNT>  (1) 
0

>  <PUBCHEM_BOND_UDEF_STEREO_COUNT>  (1) 
0

>  <PUBCHEM_ISOTOPIC_ATOM_COUNT>  (1) 
0

>  <PUBCHEM_COMPONENT_COUNT>  (1) 
1

>  <PUBCHEM_CACTVS_TAUTO_COUNT>  (1) 
-1

>  <PUBCHEM_COORDINATE_TYPE>  (1) 
1
5
255

>  <PUBCHEM_BONDANNOTATIONS>  (1) 
15  16  3
13  9  3

$$$$
