83
     RDKit          2D

  9  8  0  0  1  0  0  0  0  0999 V2000
    2.0193    0.1828    0.0000 P   0  0  0  0  0  0  0  0  0  0  0  0
    2.2769   -1.2950    0.0000 O   0  0  0  0  0  0  0  0  0  0  0  0
    3.1703    1.1447    0.0000 O   0  0  0  0  0  0  0  0  0  0  0  0
   -0.2826   -1.7410    0.0000 O   0  0  0  0  0  0  0  0  0  0  0  0
   -3.0997   -0.7094    0.0000 O   0  0  0  0  0  0  0  0  0  0  0  0
   -2.2062    1.7302    0.0000 O   0  0  0  0  0  0  0  0  0  0  0  0
    0.6108    0.6986    0.0000 C   0  0  0  0  0  0  0  0  0  0  0  0
   -0.5402   -0.2633    0.0000 C   0  0  0  0  0  0  0  0  0  0  0  0
   -1.9487    0.2525    0.0000 C   0  0  0  0  0  0  0  0  0  0  0  0
  1  2  1  0
  1  3  2  0
  1  7  1  0
  4  8  2  0
  5  9  1  0
  6  9  2  0
  7  8  1  0
  8  9  1  0
M  END
>  <PUBCHEM_COMPOUND_CID>  (1) 
83

>  <PUBCHEM_COMPOUND_CANONICALIZED>  (1) 
1

>  <PUBCHEM_CACTVS_COMPLEXITY>  (1) 
162

>  <PUBCHEM_CACTVS_HBOND_ACCEPTOR>  (1) 
5

>  <PUBCHEM_CACTVS_HBOND_DONOR>  (1) 
2

>  <PUBCHEM_CACTVS_ROTATABLE_BOND>  (1) 
3

>  <PUBCHEM_CACTVS_SUBSKEYS>  (1) 
AAADcYBAOAIAAAAAAAAAAAAAAAAAAAAAAAAAAAAAAAAAAAAAAAAAGggACCAQCASIgAAACAAAAhAIQICQCIIAAAAAAAAAAAFAAAAAAAAAAAAAQAAAAAAAAAAAAAAAAAAAAAAAAAAAAAAAAAAAAAAAAAAAAA==

>  <PUBCHEM_IUPAC_OPENEYE_NAME>  (1) 
3-hydroxyphosphonoyl-2-oxo-propanoic acid

>  <PUBCHEM_IUPAC_CAS_NAME>  (1) 
3-hydroxyphosphonoyl-2-oxopropanoic acid

>  <PUBCHEM_IUPAC_NAME_MARKUP>  (1) 
3-hydroxyphosphonoyl-2-oxopropanoic acid

>  <PUBCHEM_IUPAC_NAME>  (1) 
3-hydroxyphosphonoyl-2-oxopropanoic acid

>  <PUBCHEM_IUPAC_SYSTEMATIC_NAME>  (1) 
2-oxidanylidene-3-oxidanylphosphonoyl-propanoic acid

>  <PUBCHEM_IUPAC_TRADITIONAL_NAME>  (1) 
3-hydroxyphosphonoyl-2-keto-propionic acid

>  <PUBCHEM_IUPAC_INCHI>  (1) 
InChI=1S/C3H5O5P/c4-2(3(5)6)1-9(7)8/h9H,1H2,(H,5,6)(H,7,8)

>  <PUBCHEM_IUPAC_INCHIKEY>  (1) 
VHAFWRWGHGSZDL-UHFFFAOYSA-N

>  <PUBCHEM_XLOGP3_AA>  (1) 
-1.7

>  <PUBCHEM_EXACT_MASS>  (1) 
151.98746

>  <PUBCHEM_MOLECULAR_FORMULA>  (1) 
C3H5O5P

>  <PUBCHEM_MOLECULAR_WEIGHT>  (1) 
152.04

>  <PUBCHEM_OPENEYE_CAN_SMILES>  (1) 
C(C(=O)C(=O)O)P(=O)O

>  <PUBCHEM_OPENEYE_ISO_SMILES>  (1) 
C(C(=O)C(=O)O)P(=O)O

>  <PUBCHEM_CACTVS_TPSA>  (1) 
91.7

>  <PUBCHEM_MONOISOTOPIC_WEIGHT>  (1) 
151.98746

>  <PUBCHEM_TOTAL_CHARGE>  (1) 
0

>  <PUBCHEM_HEAVY_ATOM_COUNT>  (1) 
9

>  <PUBCHEM_ATOM_DEF_STEREO_COUNT>  (1) 
0

>  <PUBCHEM_ATOM_UDEF_STEREO_COUNT>  (1) 
0

>  <PUBCHEM_BOND_DEF_STEREO_COUNT>  (1) 
0

>  <PUBCHEM_BOND_UDEF_STEREO_COUNT>  (1) 
0

>  <PUBCHEM_ISOTOPIC_ATOM_COUNT>  (1) 
0

>  <PUBCHEM_COMPONENT_COUNT>  (1) 
1

>  <PUBCHEM_CACTVS_TAUTO_COUNT>  (1) 
-1

>  <PUBCHEM_COORDINATE_TYPE>  (1) 
1
5
255

$$$$
