830
     RDKit          2D

 12 11  0  0  1  0  0  0  0  0999 V2000
   -0.3806    0.6582    0.0000 O   0  0  0  0  0  0  0  0  0  0  0  0
    4.7982    0.2346    0.0000 O   0  0  0  0  0  0  0  0  0  0  0  0
    3.3201   -1.9020    0.0000 O   0  0  0  0  0  0  0  0  0  0  0  0
   -1.8587   -1.4784    0.0000 O   0  0  0  0  0  0  0  0  0  0  0  0
    2.3311    1.9414    0.0000 N   0  0  0  0  0  0  0  0  0  0  0  0
   -4.3259    0.2284    0.0000 N   0  0  0  0  0  0  0  0  0  0  0  0
   -5.6818   -0.4132    0.0000 N   0  0  0  0  0  0  0  0  0  0  0  0
    2.2088    0.4464    0.0000 C   0  0  0  0  0  0  0  0  0  0  0  0
    0.8530   -0.1952    0.0000 C   0  0  0  0  0  0  0  0  0  0  0  0
    3.4424   -0.4070    0.0000 C   0  0  0  0  0  0  0  0  0  0  0  0
   -1.7365    0.0166    0.0000 C   0  0  0  0  0  0  0  0  0  0  0  0
   -2.9701    0.8700    0.0000 C   0  0  0  0  0  0  0  0  0  0  0  0
  1  9  1  0
  1 11  1  0
  2 10  1  0
  3 10  2  0
  4 11  2  0
  5  8  1  0
  6  7  2  0
  6 12  2  0
  8  9  1  0
  8 10  1  0
 11 12  1  0
M  CHG  2   6   1   7  -1
M  END
>  <PUBCHEM_COMPOUND_CID>  (1) 
830

>  <PUBCHEM_COMPOUND_CANONICALIZED>  (1) 
1

>  <PUBCHEM_CACTVS_COMPLEXITY>  (1) 
233

>  <PUBCHEM_CACTVS_HBOND_ACCEPTOR>  (1) 
6

>  <PUBCHEM_CACTVS_HBOND_DONOR>  (1) 
2

>  <PUBCHEM_CACTVS_ROTATABLE_BOND>  (1) 
5

>  <PUBCHEM_CACTVS_SUBSKEYS>  (1) 
AAADcYBjOAAAAAAAAAAAAAAAAAAAAAAAAAAAAAAAAAAAAAAAAAAAHgAYCAAACCjhgAYACABABgAqABCxCAQAAAAAAAAAAIGAAAACAAQAAAADQAABMAAAAAAAAAAAAAAAAAAAAAAAAAAAAAAAAAAAAAAAAA==

>  <PUBCHEM_IUPAC_OPENEYE_NAME>  (1) 
2-amino-3-(2-diazoacetyl)oxy-propanoic acid

>  <PUBCHEM_IUPAC_CAS_NAME>  (1) 
2-amino-3-(2-diazo-1-oxoethoxy)propanoic acid

>  <PUBCHEM_IUPAC_NAME_MARKUP>  (1) 
2-amino-3-(2-diazoacetyl)oxypropanoic acid

>  <PUBCHEM_IUPAC_NAME>  (1) 
2-amino-3-(2-diazoacetyl)oxypropanoic acid

>  <PUBCHEM_IUPAC_SYSTEMATIC_NAME>  (1) 
2-azanyl-3-(2-diazoethanoyloxy)propanoic acid

>  <PUBCHEM_IUPAC_TRADITIONAL_NAME>  (1) 
2-amino-3-(2-diazoacetyl)oxy-propionic acid

>  <PUBCHEM_IUPAC_INCHI>  (1) 
InChI=1S/C5H7N3O4/c6-3(5(10)11)2-12-4(9)1-8-7/h1,3H,2,6H2,(H,10,11)

>  <PUBCHEM_IUPAC_INCHIKEY>  (1) 
MZZGOOYMKKIOOX-UHFFFAOYSA-N

>  <PUBCHEM_XLOGP3_AA>  (1) 
-3.2

>  <PUBCHEM_EXACT_MASS>  (1) 
173.043656

>  <PUBCHEM_MOLECULAR_FORMULA>  (1) 
C5H7N3O4

>  <PUBCHEM_MOLECULAR_WEIGHT>  (1) 
173.13

>  <PUBCHEM_OPENEYE_CAN_SMILES>  (1) 
C(C(C(=O)O)N)OC(=O)C=[N+]=[N-]

>  <PUBCHEM_OPENEYE_ISO_SMILES>  (1) 
C(C(C(=O)O)N)OC(=O)C=[N+]=[N-]

>  <PUBCHEM_CACTVS_TPSA>  (1) 
91.6

>  <PUBCHEM_MONOISOTOPIC_WEIGHT>  (1) 
173.043656

>  <PUBCHEM_TOTAL_CHARGE>  (1) 
0

>  <PUBCHEM_HEAVY_ATOM_COUNT>  (1) 
12

>  <PUBCHEM_ATOM_DEF_STEREO_COUNT>  (1) 
0

>  <PUBCHEM_ATOM_UDEF_STEREO_COUNT>  (1) 
1

>  <PUBCHEM_BOND_DEF_STEREO_COUNT>  (1) 
0

>  <PUBCHEM_BOND_UDEF_STEREO_COUNT>  (1) 
1

>  <PUBCHEM_ISOTOPIC_ATOM_COUNT>  (1) 
0

>  <PUBCHEM_COMPONENT_COUNT>  (1) 
1

>  <PUBCHEM_CACTVS_TAUTO_COUNT>  (1) 
-1

>  <PUBCHEM_COORDINATE_TYPE>  (1) 
1
5
255

>  <PUBCHEM_BONDANNOTATIONS>  (1) 
8  5  3
6  12  1

$$$$
