833
     RDKit          2D

 12 11  0  0  1  0  0  0  0  0999 V2000
    4.9960   -0.2950    0.0000 O   0  0  0  0  0  0  0  0  0  0  0  0
    3.6056    1.8997    0.0000 O   0  0  0  0  0  0  0  0  0  0  0  0
   -4.1820    1.5796    0.0000 O   0  0  0  0  0  0  0  0  0  0  0  0
   -2.7917   -0.6152    0.0000 N   0  0  0  0  0  0  0  0  0  0  0  0
    2.4617   -1.9005    0.0000 N   0  0  0  0  0  0  0  0  0  0  0  0
   -5.3876   -0.7219    0.0000 N   0  0  0  0  0  0  0  0  0  0  0  0
    1.0713    0.2943    0.0000 C   0  0  0  0  0  0  0  0  0  0  0  0
   -0.1958   -0.5085    0.0000 C   0  0  0  0  0  0  0  0  0  0  0  0
    2.4001   -0.4018    0.0000 C   0  0  0  0  0  0  0  0  0  0  0  0
   -1.5245    0.1875    0.0000 C   0  0  0  0  0  0  0  0  0  0  0  0
    3.6672    0.4010    0.0000 C   0  0  0  0  0  0  0  0  0  0  0  0
   -4.1204    0.0808    0.0000 C   0  0  0  0  0  0  0  0  0  0  0  0
  1 11  1  0
  2 11  2  0
  3 12  2  0
  4 10  1  0
  4 12  1  0
  5  9  1  0
  6 12  1  0
  7  8  1  0
  7  9  1  0
  8 10  1  0
  9 11  1  0
M  END
>  <PUBCHEM_COMPOUND_CID>  (1) 
833

>  <PUBCHEM_COMPOUND_CANONICALIZED>  (1) 
1

>  <PUBCHEM_CACTVS_COMPLEXITY>  (1) 
171

>  <PUBCHEM_CACTVS_HBOND_ACCEPTOR>  (1) 
4

>  <PUBCHEM_CACTVS_HBOND_DONOR>  (1) 
4

>  <PUBCHEM_CACTVS_ROTATABLE_BOND>  (1) 
5

>  <PUBCHEM_CACTVS_SUBSKEYS>  (1) 
AAADccBjMAAAAAAAAAAAAAAAAAAAAAAAAAAAAAAAAAAAAAAAAAAAHgAQCAAACCjBgAQBCALAAgAIAACQGAAAAAAAAAAAAIGIAACCABIAgAAEQAAEFgIAAACYEQIAAAAAAAAAAAAAAAAAAAAAAAAAAAAAAA==

>  <PUBCHEM_IUPAC_OPENEYE_NAME>  (1) 
2-amino-5-ureido-pentanoic acid

>  <PUBCHEM_IUPAC_CAS_NAME>  (1) 
2-amino-5-(carbamoylamino)pentanoic acid

>  <PUBCHEM_IUPAC_NAME_MARKUP>  (1) 
2-amino-5-(carbamoylamino)pentanoic acid

>  <PUBCHEM_IUPAC_NAME>  (1) 
2-amino-5-(carbamoylamino)pentanoic acid

>  <PUBCHEM_IUPAC_SYSTEMATIC_NAME>  (1) 
5-(aminocarbonylamino)-2-azanyl-pentanoic acid

>  <PUBCHEM_IUPAC_TRADITIONAL_NAME>  (1) 
2-amino-5-ureido-valeric acid

>  <PUBCHEM_IUPAC_INCHI>  (1) 
InChI=1S/C6H13N3O3/c7-4(5(10)11)2-1-3-9-6(8)12/h4H,1-3,7H2,(H,10,11)(H3,8,9,12)

>  <PUBCHEM_IUPAC_INCHIKEY>  (1) 
RHGKLRLOHDJJDR-UHFFFAOYSA-N

>  <PUBCHEM_XLOGP3>  (1) 
-4.3

>  <PUBCHEM_EXACT_MASS>  (1) 
175.095691

>  <PUBCHEM_MOLECULAR_FORMULA>  (1) 
C6H13N3O3

>  <PUBCHEM_MOLECULAR_WEIGHT>  (1) 
175.19

>  <PUBCHEM_OPENEYE_CAN_SMILES>  (1) 
C(CC(C(=O)O)N)CNC(=O)N

>  <PUBCHEM_OPENEYE_ISO_SMILES>  (1) 
C(CC(C(=O)O)N)CNC(=O)N

>  <PUBCHEM_CACTVS_TPSA>  (1) 
118

>  <PUBCHEM_MONOISOTOPIC_WEIGHT>  (1) 
175.095691

>  <PUBCHEM_TOTAL_CHARGE>  (1) 
0

>  <PUBCHEM_HEAVY_ATOM_COUNT>  (1) 
12

>  <PUBCHEM_ATOM_DEF_STEREO_COUNT>  (1) 
0

>  <PUBCHEM_ATOM_UDEF_STEREO_COUNT>  (1) 
1

>  <PUBCHEM_BOND_DEF_STEREO_COUNT>  (1) 
0

>  <PUBCHEM_BOND_UDEF_STEREO_COUNT>  (1) 
0

>  <PUBCHEM_ISOTOPIC_ATOM_COUNT>  (1) 
0

>  <PUBCHEM_COMPONENT_COUNT>  (1) 
1

>  <PUBCHEM_CACTVS_TAUTO_COUNT>  (1) 
-1

>  <PUBCHEM_COORDINATE_TYPE>  (1) 
1
5
255

>  <PUBCHEM_BONDANNOTATIONS>  (1) 
9  5  3

$$$$
