836
     RDKit          2D

 14 14  0  0  1  0  0  0  0  0999 V2000
    2.7850    2.3113    0.0000 O   0  0  0  0  0  0  0  0  0  0  0  0
   -4.6259    1.1585    0.0000 O   0  0  0  0  0  0  0  0  0  0  0  0
    4.6665   -0.0253    0.0000 O   0  0  0  0  0  0  0  0  0  0  0  0
   -4.2266   -1.4087    0.0000 O   0  0  0  0  0  0  0  0  0  0  0  0
   -1.6615    1.6196    0.0000 N   0  0  0  0  0  0  0  0  0  0  0  0
   -1.2622   -0.9476    0.0000 C   0  0  0  0  0  0  0  0  0  0  0  0
   -2.2030    0.2207    0.0000 C   0  0  0  0  0  0  0  0  0  0  0  0
    0.2200   -0.7170    0.0000 C   0  0  0  0  0  0  0  0  0  0  0  0
    0.7614    0.6819    0.0000 C   0  0  0  0  0  0  0  0  0  0  0  0
    1.1607   -1.8853    0.0000 C   0  0  0  0  0  0  0  0  0  0  0  0
    2.2436    0.9124    0.0000 C   0  0  0  0  0  0  0  0  0  0  0  0
   -3.6851   -0.0098    0.0000 C   0  0  0  0  0  0  0  0  0  0  0  0
    2.6429   -1.6548    0.0000 C   0  0  0  0  0  0  0  0  0  0  0  0
    3.1843   -0.2559    0.0000 C   0  0  0  0  0  0  0  0  0  0  0  0
  1 11  1  0
  2 12  1  0
  3 14  1  0
  4 12  2  0
  5  7  1  0
  6  7  1  0
  6  8  1  0
  7 12  1  0
  8  9  2  0
  8 10  1  0
  9 11  1  0
 10 13  2  0
 11 14  2  0
 13 14  1  0
M  END
>  <PUBCHEM_COMPOUND_CID>  (1) 
836

>  <PUBCHEM_COMPOUND_CANONICALIZED>  (1) 
1

>  <PUBCHEM_CACTVS_COMPLEXITY>  (1) 
209

>  <PUBCHEM_CACTVS_HBOND_ACCEPTOR>  (1) 
5

>  <PUBCHEM_CACTVS_HBOND_DONOR>  (1) 
4

>  <PUBCHEM_CACTVS_ROTATABLE_BOND>  (1) 
3

>  <PUBCHEM_CACTVS_SUBSKEYS>  (1) 
AAADccByOAAAAAAAAAAAAAAAAAAAAAAAAAAwAAAAAAAAAAABAAAAHgAQCAAADCzBmAQwDoBAAgCIAiDSCAACAAAgIAAIiIGGiIgLJjKCkROAcAEk0BEJmAeY2LGOIAABAAAAQABAAAIAAACAAAAAAAAAAA==

>  <PUBCHEM_IUPAC_OPENEYE_NAME>  (1) 
2-amino-3-(3,4-dihydroxyphenyl)propanoic acid

>  <PUBCHEM_IUPAC_CAS_NAME>  (1) 
2-amino-3-(3,4-dihydroxyphenyl)propanoic acid

>  <PUBCHEM_IUPAC_NAME_MARKUP>  (1) 
2-amino-3-(3,4-dihydroxyphenyl)propanoic acid

>  <PUBCHEM_IUPAC_NAME>  (1) 
2-amino-3-(3,4-dihydroxyphenyl)propanoic acid

>  <PUBCHEM_IUPAC_SYSTEMATIC_NAME>  (1) 
2-azanyl-3-[3,4-bis(oxidanyl)phenyl]propanoic acid

>  <PUBCHEM_IUPAC_TRADITIONAL_NAME>  (1) 
2-amino-3-(3,4-dihydroxyphenyl)propionic acid

>  <PUBCHEM_IUPAC_INCHI>  (1) 
InChI=1S/C9H11NO4/c10-6(9(13)14)3-5-1-2-7(11)8(12)4-5/h1-2,4,6,11-12H,3,10H2,(H,13,14)

>  <PUBCHEM_IUPAC_INCHIKEY>  (1) 
WTDRDQBEARUVNC-UHFFFAOYSA-N

>  <PUBCHEM_XLOGP3>  (1) 
-2.7

>  <PUBCHEM_EXACT_MASS>  (1) 
197.068808

>  <PUBCHEM_MOLECULAR_FORMULA>  (1) 
C9H11NO4

>  <PUBCHEM_MOLECULAR_WEIGHT>  (1) 
197.19

>  <PUBCHEM_OPENEYE_CAN_SMILES>  (1) 
C1=CC(=C(C=C1CC(C(=O)O)N)O)O

>  <PUBCHEM_OPENEYE_ISO_SMILES>  (1) 
C1=CC(=C(C=C1CC(C(=O)O)N)O)O

>  <PUBCHEM_CACTVS_TPSA>  (1) 
104

>  <PUBCHEM_MONOISOTOPIC_WEIGHT>  (1) 
197.068808

>  <PUBCHEM_TOTAL_CHARGE>  (1) 
0

>  <PUBCHEM_HEAVY_ATOM_COUNT>  (1) 
14

>  <PUBCHEM_ATOM_DEF_STEREO_COUNT>  (1) 
0

>  <PUBCHEM_ATOM_UDEF_STEREO_COUNT>  (1) 
1

>  <PUBCHEM_BOND_DEF_STEREO_COUNT>  (1) 
0

>  <PUBCHEM_BOND_UDEF_STEREO_COUNT>  (1) 
0

>  <PUBCHEM_ISOTOPIC_ATOM_COUNT>  (1) 
0

>  <PUBCHEM_COMPONENT_COUNT>  (1) 
1

>  <PUBCHEM_CACTVS_TAUTO_COUNT>  (1) 
-1

>  <PUBCHEM_COORDINATE_TYPE>  (1) 
1
5
255

>  <PUBCHEM_BONDANNOTATIONS>  (1) 
10  13  8
11  14  8
13  14  8
7  5  3
8  10  8
8  9  8
9  11  8

$$$$
