839
     RDKit          2D

 11 10  0  0  1  0  0  0  0  0999 V2000
   -1.2990    1.8409    0.0000 O   0  0  0  0  0  0  0  0  0  0  0  0
    3.8971    0.3409    0.0000 O   0  0  0  0  0  0  0  0  0  0  0  0
   -3.8971    0.3409    0.0000 O   0  0  0  0  0  0  0  0  0  0  0  0
    2.5981   -1.9091    0.0000 O   0  0  0  0  0  0  0  0  0  0  0  0
   -2.5981   -1.9091    0.0000 O   0  0  0  0  0  0  0  0  0  0  0  0
    1.2990    1.8409    0.0000 N   0  0  0  0  0  0  0  0  0  0  0  0
   -0.0000   -0.4091    0.0000 C   0  0  0  0  0  0  0  0  0  0  0  0
    1.2990    0.3409    0.0000 C   0  0  0  0  0  0  0  0  0  0  0  0
   -1.2990    0.3409    0.0000 C   0  0  0  0  0  0  0  0  0  0  0  0
    2.5981   -0.4091    0.0000 C   0  0  0  0  0  0  0  0  0  0  0  0
   -2.5981   -0.4091    0.0000 C   0  0  0  0  0  0  0  0  0  0  0  0
  1  9  1  0
  2 10  1  0
  3 11  1  0
  4 10  2  0
  5 11  2  0
  6  8  1  0
  7  8  1  0
  7  9  1  0
  8 10  1  0
  9 11  1  0
M  END
>  <PUBCHEM_COMPOUND_CID>  (1) 
839

>  <PUBCHEM_COMPOUND_CANONICALIZED>  (1) 
1

>  <PUBCHEM_CACTVS_COMPLEXITY>  (1) 
168

>  <PUBCHEM_CACTVS_HBOND_ACCEPTOR>  (1) 
6

>  <PUBCHEM_CACTVS_HBOND_DONOR>  (1) 
4

>  <PUBCHEM_CACTVS_ROTATABLE_BOND>  (1) 
4

>  <PUBCHEM_CACTVS_SUBSKEYS>  (1) 
AAADccBiOAAAAAAAAAAAAAAAAAAAAAAAAAAAAAAAAAAAAAAAAAAAHgAQCAAACDzhgAYACABAAgAIAACQCAIAAAAAAAAAAIHAAAADEBIAgAAAQAAGEAABAADuJgAAAAAAAAAAAAAAAAAAAAAAAAAAAAAAAA==

>  <PUBCHEM_IUPAC_OPENEYE_NAME>  (1) 
2-amino-4-hydroxy-pentanedioic acid

>  <PUBCHEM_IUPAC_CAS_NAME>  (1) 
2-amino-4-hydroxypentanedioic acid

>  <PUBCHEM_IUPAC_NAME_MARKUP>  (1) 
2-amino-4-hydroxypentanedioic acid

>  <PUBCHEM_IUPAC_NAME>  (1) 
2-amino-4-hydroxypentanedioic acid

>  <PUBCHEM_IUPAC_SYSTEMATIC_NAME>  (1) 
2-azanyl-4-oxidanyl-pentanedioic acid

>  <PUBCHEM_IUPAC_TRADITIONAL_NAME>  (1) 
2-amino-4-hydroxy-glutaric acid

>  <PUBCHEM_IUPAC_INCHI>  (1) 
InChI=1S/C5H9NO5/c6-2(4(8)9)1-3(7)5(10)11/h2-3,7H,1,6H2,(H,8,9)(H,10,11)

>  <PUBCHEM_IUPAC_INCHIKEY>  (1) 
HBDWQSHEVMSFGY-UHFFFAOYSA-N

>  <PUBCHEM_XLOGP3_AA>  (1) 
-4.1

>  <PUBCHEM_EXACT_MASS>  (1) 
163.048072

>  <PUBCHEM_MOLECULAR_FORMULA>  (1) 
C5H9NO5

>  <PUBCHEM_MOLECULAR_WEIGHT>  (1) 
163.13

>  <PUBCHEM_OPENEYE_CAN_SMILES>  (1) 
C(C(C(=O)O)N)C(C(=O)O)O

>  <PUBCHEM_OPENEYE_ISO_SMILES>  (1) 
C(C(C(=O)O)N)C(C(=O)O)O

>  <PUBCHEM_CACTVS_TPSA>  (1) 
121

>  <PUBCHEM_MONOISOTOPIC_WEIGHT>  (1) 
163.048072

>  <PUBCHEM_TOTAL_CHARGE>  (1) 
0

>  <PUBCHEM_HEAVY_ATOM_COUNT>  (1) 
11

>  <PUBCHEM_ATOM_DEF_STEREO_COUNT>  (1) 
0

>  <PUBCHEM_ATOM_UDEF_STEREO_COUNT>  (1) 
2

>  <PUBCHEM_BOND_DEF_STEREO_COUNT>  (1) 
0

>  <PUBCHEM_BOND_UDEF_STEREO_COUNT>  (1) 
0

>  <PUBCHEM_ISOTOPIC_ATOM_COUNT>  (1) 
0

>  <PUBCHEM_COMPONENT_COUNT>  (1) 
1

>  <PUBCHEM_CACTVS_TAUTO_COUNT>  (1) 
-1

>  <PUBCHEM_COORDINATE_TYPE>  (1) 
1
5
255

>  <PUBCHEM_BONDANNOTATIONS>  (1) 
9  1  3
8  6  3

$$$$
