84
     RDKit          2D

 58 60  0  0  1  0  0  0  0  0999 V2000
  -13.1158   -0.0620    0.0000 S   0  0  0  0  0  0  0  0  0  0  0  0
    5.3196   -1.7448    0.0000 P   0  0  0  0  0  0  0  0  0  0  0  0
    5.0107    3.2822    0.0000 P   0  0  0  0  0  0  0  0  0  0  0  0
    2.4130    3.2329    0.0000 P   0  0  0  0  0  0  0  0  0  0  0  0
    9.0236    0.9679    0.0000 O   0  0  0  0  0  0  0  0  0  0  0  0
    6.7547   -2.1812    0.0000 O   0  0  0  0  0  0  0  0  0  0  0  0
    9.9590   -2.7991    0.0000 O   0  0  0  0  0  0  0  0  0  0  0  0
    6.3237    2.5569    0.0000 O   0  0  0  0  0  0  0  0  0  0  0  0
    5.7560   -0.3097    0.0000 O   0  0  0  0  0  0  0  0  0  0  0  0
    3.8844   -1.3084    0.0000 O   0  0  0  0  0  0  0  0  0  0  0  0
    3.6976    4.0074    0.0000 O   0  0  0  0  0  0  0  0  0  0  0  0
    4.8832   -3.1800    0.0000 O   0  0  0  0  0  0  0  0  0  0  0  0
    1.1285    2.4584    0.0000 O   0  0  0  0  0  0  0  0  0  0  0  0
    5.7359    4.5952    0.0000 O   0  0  0  0  0  0  0  0  0  0  0  0
    4.2854    1.9691    0.0000 O   0  0  0  0  0  0  0  0  0  0  0  0
   -1.3839   -2.0900    0.0000 O   0  0  0  0  0  0  0  0  0  0  0  0
    3.1875    1.9483    0.0000 O   0  0  0  0  0  0  0  0  0  0  0  0
    1.6386    4.5175    0.0000 O   0  0  0  0  0  0  0  0  0  0  0  0
   -2.7537    1.6347    0.0000 O   0  0  0  0  0  0  0  0  0  0  0  0
  -18.2825   -1.6602    0.0000 O   0  0  0  0  0  0  0  0  0  0  0  0
   -7.9490    1.5362    0.0000 O   0  0  0  0  0  0  0  0  0  0  0  0
  -14.3719   -2.3362    0.0000 O   0  0  0  0  0  0  0  0  0  0  0  0
  -20.0467    1.6550    0.0000 O   0  0  0  0  0  0  0  0  0  0  0  0
  -19.9974   -0.9426    0.0000 O   0  0  0  0  0  0  0  0  0  0  0  0
   11.5368    0.0575    0.0000 N   0  0  0  0  0  0  0  0  0  0  0  0
   13.7349    1.0865    0.0000 N   0  0  0  0  0  0  0  0  0  0  0  0
   12.4330   -2.5325    0.0000 N   0  0  0  0  0  0  0  0  0  0  0  0
   15.0215   -2.7551    0.0000 N   0  0  0  0  0  0  0  0  0  0  0  0
   16.5085   -0.6246    0.0000 N   0  0  0  0  0  0  0  0  0  0  0  0
   -4.0099   -0.6395    0.0000 N   0  0  0  0  0  0  0  0  0  0  0  0
   -9.2051   -0.7380    0.0000 N   0  0  0  0  0  0  0  0  0  0  0  0
    7.8502   -1.1566    0.0000 C   0  0  0  0  0  0  0  0  0  0  0  0
    9.3230   -1.4406    0.0000 C   0  0  0  0  0  0  0  0  0  0  0  0
    7.6651    0.3319    0.0000 C   0  0  0  0  0  0  0  0  0  0  0  0
   10.0483   -0.1276    0.0000 C   0  0  0  0  0  0  0  0  0  0  0  0
    6.3521    1.0572    0.0000 C   0  0  0  0  0  0  0  0  0  0  0  0
   12.5615   -1.0380    0.0000 C   0  0  0  0  0  0  0  0  0  0  0  0
   12.2621    1.3705    0.0000 C   0  0  0  0  0  0  0  0  0  0  0  0
   13.9200   -0.4021    0.0000 C   0  0  0  0  0  0  0  0  0  0  0  0
   -0.1277    0.1842    0.0000 C   0  0  0  0  0  0  0  0  0  0  0  0
   -1.4123   -0.5903    0.0000 C   0  0  0  0  0  0  0  0  0  0  0  0
   15.1500   -1.2606    0.0000 C   0  0  0  0  0  0  0  0  0  0  0  0
    1.1569    0.9587    0.0000 C   0  0  0  0  0  0  0  0  0  0  0  0
   -0.9022    1.4688    0.0000 C   0  0  0  0  0  0  0  0  0  0  0  0
    0.6468   -1.1004    0.0000 C   0  0  0  0  0  0  0  0  0  0  0  0
   13.6630   -3.3910    0.0000 C   0  0  0  0  0  0  0  0  0  0  0  0
   -2.7253    0.1350    0.0000 C   0  0  0  0  0  0  0  0  0  0  0  0
   -5.3229    0.0857    0.0000 C   0  0  0  0  0  0  0  0  0  0  0  0
   -6.6075   -0.6888    0.0000 C   0  0  0  0  0  0  0  0  0  0  0  0
  -16.9979   -0.8857    0.0000 C   0  0  0  0  0  0  0  0  0  0  0  0
  -15.7134   -0.1112    0.0000 C   0  0  0  0  0  0  0  0  0  0  0  0
   -7.9205    0.0365    0.0000 C   0  0  0  0  0  0  0  0  0  0  0  0
  -17.7724    0.3989    0.0000 C   0  0  0  0  0  0  0  0  0  0  0  0
  -16.2235   -2.1703    0.0000 C   0  0  0  0  0  0  0  0  0  0  0  0
  -10.5181   -0.0127    0.0000 C   0  0  0  0  0  0  0  0  0  0  0  0
  -14.4003   -0.8365    0.0000 C   0  0  0  0  0  0  0  0  0  0  0  0
  -11.8027   -0.7872    0.0000 C   0  0  0  0  0  0  0  0  0  0  0  0
  -19.2722    0.3704    0.0000 C   0  0  0  0  0  0  0  0  0  0  0  0
  1 56  1  0
  1 57  1  0
  2  6  1  0
  2  9  1  0
  2 10  1  0
  2 12  2  0
  3  8  1  0
  3 11  1  0
  3 14  1  0
  3 15  2  0
  4 11  1  0
  4 13  1  0
  4 17  1  0
  4 18  2  0
  5 34  1  0
  5 35  1  0
  6 32  1  0
  7 33  1  0
  8 36  1  0
 13 43  1  0
 16 41  1  0
 19 47  2  0
 20 50  1  0
 21 52  2  0
 22 56  2  0
 23 58  1  0
 24 58  2  0
 25 35  1  0
 25 37  1  0
 25 38  1  0
 26 38  2  0
 26 39  1  0
 27 37  1  0
 27 46  2  0
 28 42  2  0
 28 46  1  0
 29 42  1  0
 30 47  1  0
 30 48  1  0
 31 52  1  0
 31 55  1  0
 32 33  1  0
 32 34  1  0
 33 35  1  0
 34 36  1  0
 37 39  2  0
 39 42  1  0
 40 41  1  0
 40 43  1  0
 40 44  1  0
 40 45  1  0
 41 47  1  0
 48 49  1  0
 49 52  1  0
 50 51  1  0
 50 53  1  0
 50 54  1  0
 51 56  1  0
 53 58  1  0
 55 57  1  0
M  END
>  <PUBCHEM_COMPOUND_CID>  (1) 
84

>  <PUBCHEM_COMPOUND_CANONICALIZED>  (1) 
1

>  <PUBCHEM_CACTVS_COMPLEXITY>  (1) 
1610

>  <PUBCHEM_CACTVS_HBOND_ACCEPTOR>  (1) 
25

>  <PUBCHEM_CACTVS_HBOND_DONOR>  (1) 
11

>  <PUBCHEM_CACTVS_ROTATABLE_BOND>  (1) 
24

>  <PUBCHEM_CACTVS_SUBSKEYS>  (1) 
AAADcfB7vgNAAAAAAAAAAAAAAAAAAWJAAAAsAAAAAAAAAFgB+AAAHgQQCCAADlzl1waH+L/MFxioQQfxfIKAgC0RELABUKFoVBCDWB5gyEAeRAgPNgLzACD6NgILAAAAAAAAAAAAAAAAAAAAAAAAAAAAAA==

>  <PUBCHEM_IUPAC_OPENEYE_NAME>  (1) 
5-[2-[3-[[4-[[[5-(6-aminopurin-9-yl)-4-hydroxy-3-phosphonooxy-tetrahydrofuran-2-yl]methoxy-hydroxy-phosphoryl]oxy-hydroxy-phosphoryl]oxy-2-hydroxy-3,3-dimethyl-butanoyl]amino]propanoylamino]ethylsulfanyl]-3-hydroxy-3-methyl-5-oxo-pentanoic acid

>  <PUBCHEM_IUPAC_CAS_NAME>  (1) 
5-[2-[[3-[[4-[[[5-(6-aminopurin-9-yl)-4-hydroxy-3-phosphonooxy-2-oxolanyl]methoxy-hydroxyphosphoryl]oxy-hydroxyphosphoryl]oxy-2-hydroxy-3,3-dimethyl-1-oxobutyl]amino]-1-oxopropyl]amino]ethylthio]-3-hydroxy-3-methyl-5-oxopentanoic acid

>  <PUBCHEM_IUPAC_NAME_MARKUP>  (1) 
5-[2-[3-[[4-[[[5-(6-aminopurin-9-yl)-4-hydroxy-3-phosphonooxyoxolan-2-yl]methoxy-hydroxyphosphoryl]oxy-hydroxyphosphoryl]oxy-2-hydroxy-3,3-dimethylbutanoyl]amino]propanoylamino]ethylsulfanyl]-3-hydroxy-3-methyl-5-oxopentanoic acid

>  <PUBCHEM_IUPAC_NAME>  (1) 
5-[2-[3-[[4-[[[5-(6-aminopurin-9-yl)-4-hydroxy-3-phosphonooxyoxolan-2-yl]methoxy-hydroxyphosphoryl]oxy-hydroxyphosphoryl]oxy-2-hydroxy-3,3-dimethylbutanoyl]amino]propanoylamino]ethylsulfanyl]-3-hydroxy-3-methyl-5-oxopentanoic acid

>  <PUBCHEM_IUPAC_SYSTEMATIC_NAME>  (1) 
5-[2-[3-[[4-[[[5-(6-aminopurin-9-yl)-4-oxidanyl-3-phosphonooxy-oxolan-2-yl]methoxy-oxidanyl-phosphoryl]oxy-oxidanyl-phosphoryl]oxy-3,3-dimethyl-2-oxidanyl-butanoyl]amino]propanoylamino]ethylsulfanyl]-3-methyl-3-oxidanyl-5-oxidanylidene-pentanoic acid

>  <PUBCHEM_IUPAC_TRADITIONAL_NAME>  (1) 
5-[2-[3-[[4-[[(5-adenin-9-yl-4-hydroxy-3-phosphonooxy-tetrahydrofuran-2-yl)methoxy-hydroxy-phosphoryl]oxy-hydroxy-phosphoryl]oxy-2-hydroxy-3,3-dimethyl-butanoyl]amino]propanoylamino]ethylthio]-3-hydroxy-5-keto-3-methyl-valeric acid

>  <PUBCHEM_IUPAC_INCHI>  (1) 
InChI=1S/C27H44N7O20P3S/c1-26(2,21(40)24(41)30-5-4-15(35)29-6-7-58-17(38)9-27(3,42)8-16(36)37)11-51-57(48,49)54-56(46,47)50-10-14-20(53-55(43,44)45)19(39)25(52-14)34-13-33-18-22(28)31-12-32-23(18)34/h12-14,19-21,25,39-40,42H,4-11H2,1-3H3,(H,29,35)(H,30,41)(H,36,37)(H,46,47)(H,48,49)(H2,28,31,32)(H2,43,44,45)

>  <PUBCHEM_IUPAC_INCHIKEY>  (1) 
CABVTRNMFUVUDM-UHFFFAOYSA-N

>  <PUBCHEM_XLOGP3_AA>  (1) 
-6.6

>  <PUBCHEM_EXACT_MASS>  (1) 
911.157469

>  <PUBCHEM_MOLECULAR_FORMULA>  (1) 
C27H44N7O20P3S

>  <PUBCHEM_MOLECULAR_WEIGHT>  (1) 
911.7

>  <PUBCHEM_OPENEYE_CAN_SMILES>  (1) 
CC(C)(COP(=O)(O)OP(=O)(O)OCC1C(C(C(O1)N2C=NC3=C(N=CN=C32)N)O)OP(=O)(O)O)C(C(=O)NCCC(=O)NCCSC(=O)CC(C)(CC(=O)O)O)O

>  <PUBCHEM_OPENEYE_ISO_SMILES>  (1) 
CC(C)(COP(=O)(O)OP(=O)(O)OCC1C(C(C(O1)N2C=NC3=C(N=CN=C32)N)O)OP(=O)(O)O)C(C(=O)NCCC(=O)NCCSC(=O)CC(C)(CC(=O)O)O)O

>  <PUBCHEM_CACTVS_TPSA>  (1) 
447

>  <PUBCHEM_MONOISOTOPIC_WEIGHT>  (1) 
911.157469

>  <PUBCHEM_TOTAL_CHARGE>  (1) 
0

>  <PUBCHEM_HEAVY_ATOM_COUNT>  (1) 
58

>  <PUBCHEM_ATOM_DEF_STEREO_COUNT>  (1) 
0

>  <PUBCHEM_ATOM_UDEF_STEREO_COUNT>  (1) 
6

>  <PUBCHEM_BOND_DEF_STEREO_COUNT>  (1) 
0

>  <PUBCHEM_BOND_UDEF_STEREO_COUNT>  (1) 
0

>  <PUBCHEM_ISOTOPIC_ATOM_COUNT>  (1) 
0

>  <PUBCHEM_COMPONENT_COUNT>  (1) 
1

>  <PUBCHEM_CACTVS_TAUTO_COUNT>  (1) 
-1

>  <PUBCHEM_COORDINATE_TYPE>  (1) 
1
5
255

>  <PUBCHEM_BONDANNOTATIONS>  (1) 
41  16  3
50  20  3
35  25  3
25  37  8
25  38  8
26  38  8
26  39  8
27  37  8
27  46  8
28  42  8
28  46  8
34  36  3
37  39  8
39  42  8
32  6  3
33  7  3

$$$$
