843
     RDKit          2D

 14 13  0  0  1  0  0  0  0  0999 V2000
   -3.1999    0.6697    0.0000 P   0  0  0  0  0  0  0  0  0  0  0  0
   -1.7235    0.4042    0.0000 O   0  0  0  0  0  0  0  0  0  0  0  0
    5.1498    0.4881    0.0000 O   0  0  0  0  0  0  0  0  0  0  0  0
   -2.1833   -2.1529    0.0000 O   0  0  0  0  0  0  0  0  0  0  0  0
    3.1652    2.1649    0.0000 O   0  0  0  0  0  0  0  0  0  0  0  0
   -3.4653   -0.8067    0.0000 O   0  0  0  0  0  0  0  0  0  0  0  0
   -4.6762    0.9351    0.0000 O   0  0  0  0  0  0  0  0  0  0  0  0
   -2.9344    2.1460    0.0000 O   0  0  0  0  0  0  0  0  0  0  0  0
    3.2137   -1.8035    0.0000 N   0  0  0  0  0  0  0  0  0  0  0  0
    1.2291   -0.1267    0.0000 C   0  0  0  0  0  0  0  0  0  0  0  0
    2.7054   -0.3922    0.0000 C   0  0  0  0  0  0  0  0  0  0  0  0
    0.2611   -1.2725    0.0000 C   0  0  0  0  0  0  0  0  0  0  0  0
   -1.2153   -1.0071    0.0000 C   0  0  0  0  0  0  0  0  0  0  0  0
    3.6735    0.7536    0.0000 C   0  0  0  0  0  0  0  0  0  0  0  0
  1  2  1  0
  1  6  1  0
  1  7  1  0
  1  8  2  0
  2 13  1  0
  3 14  1  0
  4 13  2  0
  5 14  2  0
  9 11  1  0
 10 11  1  0
 10 12  1  0
 11 14  1  0
 12 13  1  0
M  END
>  <PUBCHEM_COMPOUND_CID>  (1) 
843

>  <PUBCHEM_COMPOUND_CANONICALIZED>  (1) 
1

>  <PUBCHEM_CACTVS_COMPLEXITY>  (1) 
271

>  <PUBCHEM_CACTVS_HBOND_ACCEPTOR>  (1) 
8

>  <PUBCHEM_CACTVS_HBOND_DONOR>  (1) 
4

>  <PUBCHEM_CACTVS_ROTATABLE_BOND>  (1) 
6

>  <PUBCHEM_CACTVS_SUBSKEYS>  (1) 
AAADccBiOAIAAAAAAAAAAAAAAAAAAAAAAAAAAAAAAAAAAAAAAAAAHgAQCCAACCjBgAQACABAAxAIQACQCIAAAAAAAAAAAIGAAAACABIAgAAAQAAEEAAAAACsJgAAAAAAAAAAAAAAAAAAAAAAAAAAAAAAAA==

>  <PUBCHEM_IUPAC_OPENEYE_NAME>  (1) 
2-amino-5-oxo-5-phosphonooxy-pentanoic acid

>  <PUBCHEM_IUPAC_CAS_NAME>  (1) 
2-amino-5-oxo-5-phosphonooxypentanoic acid

>  <PUBCHEM_IUPAC_NAME_MARKUP>  (1) 
2-amino-5-oxo-5-phosphonooxypentanoic acid

>  <PUBCHEM_IUPAC_NAME>  (1) 
2-amino-5-oxo-5-phosphonooxypentanoic acid

>  <PUBCHEM_IUPAC_SYSTEMATIC_NAME>  (1) 
2-azanyl-5-oxidanylidene-5-phosphonooxy-pentanoic acid

>  <PUBCHEM_IUPAC_TRADITIONAL_NAME>  (1) 
2-amino-5-keto-5-phosphonooxy-valeric acid

>  <PUBCHEM_IUPAC_INCHI>  (1) 
InChI=1S/C5H10NO7P/c6-3(5(8)9)1-2-4(7)13-14(10,11)12/h3H,1-2,6H2,(H,8,9)(H2,10,11,12)

>  <PUBCHEM_IUPAC_INCHIKEY>  (1) 
PJRXVIJAERNUIP-UHFFFAOYSA-N

>  <PUBCHEM_XLOGP3>  (1) 
-5

>  <PUBCHEM_EXACT_MASS>  (1) 
227.019489

>  <PUBCHEM_MOLECULAR_FORMULA>  (1) 
C5H10NO7P

>  <PUBCHEM_MOLECULAR_WEIGHT>  (1) 
227.11

>  <PUBCHEM_OPENEYE_CAN_SMILES>  (1) 
C(CC(=O)OP(=O)(O)O)C(C(=O)O)N

>  <PUBCHEM_OPENEYE_ISO_SMILES>  (1) 
C(CC(=O)OP(=O)(O)O)C(C(=O)O)N

>  <PUBCHEM_CACTVS_TPSA>  (1) 
147

>  <PUBCHEM_MONOISOTOPIC_WEIGHT>  (1) 
227.019489

>  <PUBCHEM_TOTAL_CHARGE>  (1) 
0

>  <PUBCHEM_HEAVY_ATOM_COUNT>  (1) 
14

>  <PUBCHEM_ATOM_DEF_STEREO_COUNT>  (1) 
0

>  <PUBCHEM_ATOM_UDEF_STEREO_COUNT>  (1) 
1

>  <PUBCHEM_BOND_DEF_STEREO_COUNT>  (1) 
0

>  <PUBCHEM_BOND_UDEF_STEREO_COUNT>  (1) 
0

>  <PUBCHEM_ISOTOPIC_ATOM_COUNT>  (1) 
0

>  <PUBCHEM_COMPONENT_COUNT>  (1) 
1

>  <PUBCHEM_CACTVS_TAUTO_COUNT>  (1) 
-1

>  <PUBCHEM_COORDINATE_TYPE>  (1) 
1
5
255

>  <PUBCHEM_BONDANNOTATIONS>  (1) 
11  9  3

$$$$
