844
     RDKit          2D

  9  8  0  0  1  0  0  0  0  0999 V2000
   -3.4399    0.5275    0.0000 O   0  0  0  0  0  0  0  0  0  0  0  0
   -2.2694   -1.7919    0.0000 O   0  0  0  0  0  0  0  0  0  0  0  0
    4.3420    0.0894    0.0000 O   0  0  0  0  0  0  0  0  0  0  0  0
   -0.7616    1.8791    0.0000 N   0  0  0  0  0  0  0  0  0  0  0  0
    0.4089   -0.4403    0.0000 C   0  0  0  0  0  0  0  0  0  0  0  0
   -0.8459    0.3815    0.0000 C   0  0  0  0  0  0  0  0  0  0  0  0
    1.7480    0.2354    0.0000 C   0  0  0  0  0  0  0  0  0  0  0  0
   -2.1851   -0.2943    0.0000 C   0  0  0  0  0  0  0  0  0  0  0  0
    3.0029   -0.5864    0.0000 C   0  0  0  0  0  0  0  0  0  0  0  0
  1  8  1  0
  2  8  2  0
  3  9  2  0
  4  6  1  0
  5  6  1  0
  5  7  1  0
  6  8  1  0
  7  9  1  0
M  END
>  <PUBCHEM_COMPOUND_CID>  (1) 
844

>  <PUBCHEM_COMPOUND_CANONICALIZED>  (1) 
1

>  <PUBCHEM_CACTVS_COMPLEXITY>  (1) 
113

>  <PUBCHEM_CACTVS_HBOND_ACCEPTOR>  (1) 
4

>  <PUBCHEM_CACTVS_HBOND_DONOR>  (1) 
2

>  <PUBCHEM_CACTVS_ROTATABLE_BOND>  (1) 
4

>  <PUBCHEM_CACTVS_SUBSKEYS>  (1) 
AAADccBiMAAAAAAAAAAAAAAAAAAAAAAAAAAAAAAAAAAAAAAAAAAAHgAQCAAACCjhgAYACABAAgAIAAiQiAAAAAAAAAAAAIGAAAACABIAgAAAQAAEEAAAAACMBgAAAAAAAAAAAAAAAAAAAAAAAAAAAAAAAA==

>  <PUBCHEM_IUPAC_OPENEYE_NAME>  (1) 
2-amino-5-oxo-pentanoic acid

>  <PUBCHEM_IUPAC_CAS_NAME>  (1) 
2-amino-5-oxopentanoic acid

>  <PUBCHEM_IUPAC_NAME_MARKUP>  (1) 
2-amino-5-oxopentanoic acid

>  <PUBCHEM_IUPAC_NAME>  (1) 
2-amino-5-oxopentanoic acid

>  <PUBCHEM_IUPAC_SYSTEMATIC_NAME>  (1) 
2-azanyl-5-oxidanylidene-pentanoic acid

>  <PUBCHEM_IUPAC_TRADITIONAL_NAME>  (1) 
2-amino-5-keto-valeric acid

>  <PUBCHEM_IUPAC_INCHI>  (1) 
InChI=1S/C5H9NO3/c6-4(5(8)9)2-1-3-7/h3-4H,1-2,6H2,(H,8,9)

>  <PUBCHEM_IUPAC_INCHIKEY>  (1) 
KABXUUFDPUOJMW-UHFFFAOYSA-N

>  <PUBCHEM_XLOGP3>  (1) 
-3.8

>  <PUBCHEM_EXACT_MASS>  (1) 
131.058243

>  <PUBCHEM_MOLECULAR_FORMULA>  (1) 
C5H9NO3

>  <PUBCHEM_MOLECULAR_WEIGHT>  (1) 
131.13

>  <PUBCHEM_OPENEYE_CAN_SMILES>  (1) 
C(CC(C(=O)O)N)C=O

>  <PUBCHEM_OPENEYE_ISO_SMILES>  (1) 
C(CC(C(=O)O)N)C=O

>  <PUBCHEM_CACTVS_TPSA>  (1) 
80.4

>  <PUBCHEM_MONOISOTOPIC_WEIGHT>  (1) 
131.058243

>  <PUBCHEM_TOTAL_CHARGE>  (1) 
0

>  <PUBCHEM_HEAVY_ATOM_COUNT>  (1) 
9

>  <PUBCHEM_ATOM_DEF_STEREO_COUNT>  (1) 
0

>  <PUBCHEM_ATOM_UDEF_STEREO_COUNT>  (1) 
1

>  <PUBCHEM_BOND_DEF_STEREO_COUNT>  (1) 
0

>  <PUBCHEM_BOND_UDEF_STEREO_COUNT>  (1) 
0

>  <PUBCHEM_ISOTOPIC_ATOM_COUNT>  (1) 
0

>  <PUBCHEM_COMPONENT_COUNT>  (1) 
1

>  <PUBCHEM_CACTVS_TAUTO_COUNT>  (1) 
-1

>  <PUBCHEM_COORDINATE_TYPE>  (1) 
1
5
255

>  <PUBCHEM_BONDANNOTATIONS>  (1) 
6  4  3

$$$$
