848
     RDKit          2D

 10  9  0  0  1  0  0  0  0  0999 V2000
    1.2586    1.9934    0.0000 O   0  0  0  0  0  0  0  0  0  0  0  0
   -2.8777   -1.1516    0.0000 O   0  0  0  0  0  0  0  0  0  0  0  0
    3.0744   -0.3947    0.0000 O   0  0  0  0  0  0  0  0  0  0  0  0
    1.0062   -1.9672    0.0000 O   0  0  0  0  0  0  0  0  0  0  0  0
   -0.8096    0.4209    0.0000 C   0  0  0  0  0  0  0  0  0  0  0  0
    0.6785    0.6101    0.0000 C   0  0  0  0  0  0  0  0  0  0  0  0
   -2.2976    0.2316    0.0000 C   0  0  0  0  0  0  0  0  0  0  0  0
   -0.9988    1.9089    0.0000 C   0  0  0  0  0  0  0  0  0  0  0  0
   -0.6203   -1.0672    0.0000 C   0  0  0  0  0  0  0  0  0  0  0  0
    1.5863   -0.5840    0.0000 C   0  0  0  0  0  0  0  0  0  0  0  0
  1  6  1  0
  2  7  1  0
  3 10  1  0
  4 10  2  0
  5  6  1  0
  5  7  1  0
  5  8  1  0
  5  9  1  0
  6 10  1  0
M  END
>  <PUBCHEM_COMPOUND_CID>  (1) 
848

>  <PUBCHEM_COMPOUND_CANONICALIZED>  (1) 
1

>  <PUBCHEM_CACTVS_COMPLEXITY>  (1) 
130

>  <PUBCHEM_CACTVS_HBOND_ACCEPTOR>  (1) 
4

>  <PUBCHEM_CACTVS_HBOND_DONOR>  (1) 
3

>  <PUBCHEM_CACTVS_ROTATABLE_BOND>  (1) 
3

>  <PUBCHEM_CACTVS_SUBSKEYS>  (1) 
AAADccBgOAAAAAAAAAAAAAAAAAAAAAAAAAAAAAAAAAAAAAAAAAAAGgAACAAADhSggAICCAAAAgAIAACQCAIAAAAAAAAAAAFAAAABEBAAAAAAQAAFAAABAABCAAAJAAAAAAAAAAAAAAAAAAAAAAAAAAAAAA==

>  <PUBCHEM_IUPAC_OPENEYE_NAME>  (1) 
2,4-dihydroxy-3,3-dimethyl-butanoic acid

>  <PUBCHEM_IUPAC_CAS_NAME>  (1) 
2,4-dihydroxy-3,3-dimethylbutanoic acid

>  <PUBCHEM_IUPAC_NAME_MARKUP>  (1) 
2,4-dihydroxy-3,3-dimethylbutanoic acid

>  <PUBCHEM_IUPAC_NAME>  (1) 
2,4-dihydroxy-3,3-dimethylbutanoic acid

>  <PUBCHEM_IUPAC_SYSTEMATIC_NAME>  (1) 
3,3-dimethyl-2,4-bis(oxidanyl)butanoic acid

>  <PUBCHEM_IUPAC_TRADITIONAL_NAME>  (1) 
2,4-dihydroxy-3,3-dimethyl-butyric acid

>  <PUBCHEM_IUPAC_INCHI>  (1) 
InChI=1S/C6H12O4/c1-6(2,3-7)4(8)5(9)10/h4,7-8H,3H2,1-2H3,(H,9,10)

>  <PUBCHEM_IUPAC_INCHIKEY>  (1) 
OTOIIPJYVQJATP-UHFFFAOYSA-N

>  <PUBCHEM_XLOGP3_AA>  (1) 
-0.3

>  <PUBCHEM_EXACT_MASS>  (1) 
148.073559

>  <PUBCHEM_MOLECULAR_FORMULA>  (1) 
C6H12O4

>  <PUBCHEM_MOLECULAR_WEIGHT>  (1) 
148.16

>  <PUBCHEM_OPENEYE_CAN_SMILES>  (1) 
CC(C)(CO)C(C(=O)O)O

>  <PUBCHEM_OPENEYE_ISO_SMILES>  (1) 
CC(C)(CO)C(C(=O)O)O

>  <PUBCHEM_CACTVS_TPSA>  (1) 
77.8

>  <PUBCHEM_MONOISOTOPIC_WEIGHT>  (1) 
148.073559

>  <PUBCHEM_TOTAL_CHARGE>  (1) 
0

>  <PUBCHEM_HEAVY_ATOM_COUNT>  (1) 
10

>  <PUBCHEM_ATOM_DEF_STEREO_COUNT>  (1) 
0

>  <PUBCHEM_ATOM_UDEF_STEREO_COUNT>  (1) 
1

>  <PUBCHEM_BOND_DEF_STEREO_COUNT>  (1) 
0

>  <PUBCHEM_BOND_UDEF_STEREO_COUNT>  (1) 
0

>  <PUBCHEM_ISOTOPIC_ATOM_COUNT>  (1) 
0

>  <PUBCHEM_COMPONENT_COUNT>  (1) 
1

>  <PUBCHEM_CACTVS_TAUTO_COUNT>  (1) 
-1

>  <PUBCHEM_COORDINATE_TYPE>  (1) 
1
5
255

>  <PUBCHEM_BONDANNOTATIONS>  (1) 
6  1  3

$$$$
