855
     RDKit          2D

  5  4  0  0  1  0  0  0  0  0999 V2000
   -0.5196    1.5000    0.0000 O   0  0  0  0  0  0  0  0  0  0  0  0
    2.0785   -0.0000    0.0000 O   0  0  0  0  0  0  0  0  0  0  0  0
   -0.5196    0.0000    0.0000 C   0  0  0  0  0  0  0  0  0  0  0  0
   -1.8187   -0.7500    0.0000 C   0  0  0  0  0  0  0  0  0  0  0  0
    0.7794   -0.7500    0.0000 C   0  0  0  0  0  0  0  0  0  0  0  0
  1  3  1  0
  2  5  2  0
  3  4  1  0
  3  5  1  0
M  END
>  <PUBCHEM_COMPOUND_CID>  (1) 
855

>  <PUBCHEM_COMPOUND_CANONICALIZED>  (1) 
1

>  <PUBCHEM_CACTVS_COMPLEXITY>  (1) 
33.9

>  <PUBCHEM_CACTVS_HBOND_ACCEPTOR>  (1) 
2

>  <PUBCHEM_CACTVS_HBOND_DONOR>  (1) 
1

>  <PUBCHEM_CACTVS_ROTATABLE_BOND>  (1) 
1

>  <PUBCHEM_CACTVS_SUBSKEYS>  (1) 
AAADcYBAMAAAAAAAAAAAAAAAAAAAAAAAAAAAAAAAAAAAAAAAAAAAGgAACAAACBSggAICAAAAAgAIAAgQgAIAAAAAAAAAAAFAAAAAEAAAAAAAAAAAAAAAAAAAAAAAAAAAAAAAAAAAAAAAAAAAAAAAAAAAAA==

>  <PUBCHEM_IUPAC_OPENEYE_NAME>  (1) 
2-hydroxypropanal

>  <PUBCHEM_IUPAC_CAS_NAME>  (1) 
2-hydroxypropanal

>  <PUBCHEM_IUPAC_NAME_MARKUP>  (1) 
2-hydroxypropanal

>  <PUBCHEM_IUPAC_NAME>  (1) 
2-hydroxypropanal

>  <PUBCHEM_IUPAC_SYSTEMATIC_NAME>  (1) 
2-oxidanylpropanal

>  <PUBCHEM_IUPAC_TRADITIONAL_NAME>  (1) 
2-hydroxypropionaldehyde

>  <PUBCHEM_IUPAC_INCHI>  (1) 
InChI=1S/C3H6O2/c1-3(5)2-4/h2-3,5H,1H3

>  <PUBCHEM_IUPAC_INCHIKEY>  (1) 
BSABBBMNWQWLLU-UHFFFAOYSA-N

>  <PUBCHEM_XLOGP3_AA>  (1) 
-0.5

>  <PUBCHEM_EXACT_MASS>  (1) 
74.036779

>  <PUBCHEM_MOLECULAR_FORMULA>  (1) 
C3H6O2

>  <PUBCHEM_MOLECULAR_WEIGHT>  (1) 
74.08

>  <PUBCHEM_OPENEYE_CAN_SMILES>  (1) 
CC(C=O)O

>  <PUBCHEM_OPENEYE_ISO_SMILES>  (1) 
CC(C=O)O

>  <PUBCHEM_CACTVS_TPSA>  (1) 
37.3

>  <PUBCHEM_MONOISOTOPIC_WEIGHT>  (1) 
74.036779

>  <PUBCHEM_TOTAL_CHARGE>  (1) 
0

>  <PUBCHEM_HEAVY_ATOM_COUNT>  (1) 
5

>  <PUBCHEM_ATOM_DEF_STEREO_COUNT>  (1) 
0

>  <PUBCHEM_ATOM_UDEF_STEREO_COUNT>  (1) 
1

>  <PUBCHEM_BOND_DEF_STEREO_COUNT>  (1) 
0

>  <PUBCHEM_BOND_UDEF_STEREO_COUNT>  (1) 
0

>  <PUBCHEM_ISOTOPIC_ATOM_COUNT>  (1) 
0

>  <PUBCHEM_COMPONENT_COUNT>  (1) 
1

>  <PUBCHEM_CACTVS_TAUTO_COUNT>  (1) 
-1

>  <PUBCHEM_COORDINATE_TYPE>  (1) 
1
5
255

>  <PUBCHEM_BONDANNOTATIONS>  (1) 
3  1  3

$$$$
