858
     RDKit          2D

 18 19  0  0  1  0  0  0  0  0999 V2000
    2.0513   -1.2935    0.0000 O   0  0  0  0  0  0  0  0  0  0  0  0
    9.4544    0.0798    0.0000 O   0  0  0  0  0  0  0  0  0  0  0  0
    2.9177   -0.0690    0.0000 C   0  0  0  0  0  0  0  0  0  0  0  0
    1.4241    0.0691    0.0000 C   0  0  0  0  0  0  0  0  0  0  0  0
    4.2803    0.5582    0.0000 C   0  0  0  0  0  0  0  0  0  0  0  0
    5.5048   -0.3082    0.0000 C   0  0  0  0  0  0  0  0  0  0  0  0
    0.1997    0.9355    0.0000 C   0  0  0  0  0  0  0  0  0  0  0  0
    6.8674    0.3190    0.0000 C   0  0  0  0  0  0  0  0  0  0  0  0
   -1.1629    0.3083    0.0000 C   0  0  0  0  0  0  0  0  0  0  0  0
   -2.3874    1.1748    0.0000 C   0  0  0  0  0  0  0  0  0  0  0  0
    8.0918   -0.5474    0.0000 C   0  0  0  0  0  0  0  0  0  0  0  0
   -3.7500    0.5476    0.0000 C   0  0  0  0  0  0  0  0  0  0  0  0
   -3.7761   -0.9522    0.0000 C   0  0  0  0  0  0  0  0  0  0  0  0
   -4.9063    1.5031    0.0000 C   0  0  0  0  0  0  0  0  0  0  0  0
   -4.9649   -1.8669    0.0000 C   0  0  0  0  0  0  0  0  0  0  0  0
   -7.0485   -0.1451    0.0000 C   0  0  0  0  0  0  0  0  0  0  0  0
   -6.3742    1.1948    0.0000 C   0  0  0  0  0  0  0  0  0  0  0  0
   -6.4213   -1.5077    0.0000 C   0  0  0  0  0  0  0  0  0  0  0  0
  1  3  1  0
  1  4  1  0
  2 11  2  0
  3  4  1  0
  3  5  1  0
  4  7  1  0
  5  6  1  0
  6  8  1  0
  7  9  2  3
  8 11  1  0
  9 10  1  0
 10 12  2  3
 12 13  1  0
 12 14  1  0
 13 15  1  0
 14 17  2  0
 15 18  2  0
 16 17  1  0
 16 18  1  0
M  END
>  <PUBCHEM_COMPOUND_CID>  (1) 
858

>  <PUBCHEM_COMPOUND_CANONICALIZED>  (1) 
1

>  <PUBCHEM_CACTVS_COMPLEXITY>  (1) 
388

>  <PUBCHEM_CACTVS_HBOND_ACCEPTOR>  (1) 
2

>  <PUBCHEM_CACTVS_HBOND_DONOR>  (1) 
0

>  <PUBCHEM_CACTVS_ROTATABLE_BOND>  (1) 
6

>  <PUBCHEM_CACTVS_SUBSKEYS>  (1) 
AAADceB4MAAAAAAAAAAAAAAAEgAAAAAAAAAAAAAABAAAAAAAAAAAGgAAAAAADBSggAIAAAAABACIAihSgAAAAAAgAAAICAEAAAgIBBIAIQACEAAEwAAIoAOIzADAAAAAAAAAAAAAAAAAAAAAAAAAAAAAAA==

>  <PUBCHEM_IUPAC_OPENEYE_NAME>  (1) 
4-[3-(3-cyclohepta-2,5-dien-1-ylideneprop-1-enyl)oxiran-2-yl]butanal

>  <PUBCHEM_IUPAC_CAS_NAME>  (1) 
4-[3-[3-(1-cyclohepta-2,5-dienylidene)prop-1-enyl]-2-oxiranyl]butanal

>  <PUBCHEM_IUPAC_NAME_MARKUP>  (1) 
4-[3-(3-cyclohepta-2,5-dien-1-ylideneprop-1-enyl)oxiran-2-yl]butanal

>  <PUBCHEM_IUPAC_NAME>  (1) 
4-[3-(3-cyclohepta-2,5-dien-1-ylideneprop-1-enyl)oxiran-2-yl]butanal

>  <PUBCHEM_IUPAC_SYSTEMATIC_NAME>  (1) 
4-[3-(3-cyclohepta-2,5-dien-1-ylideneprop-1-enyl)oxiran-2-yl]butanal

>  <PUBCHEM_IUPAC_TRADITIONAL_NAME>  (1) 
4-[3-(3-cyclohepta-2,5-dien-1-ylideneprop-1-enyl)oxiran-2-yl]butyraldehyde

>  <PUBCHEM_IUPAC_INCHI>  (1) 
InChI=1S/C16H20O2/c17-13-6-5-11-15-16(18-15)12-7-10-14-8-3-1-2-4-9-14/h1,3-4,7,9-10,12-13,15-16H,2,5-6,8,11H2

>  <PUBCHEM_IUPAC_INCHIKEY>  (1) 
HWUPLFSLSVKTJN-UHFFFAOYSA-N

>  <PUBCHEM_XLOGP3_AA>  (1) 
2.8

>  <PUBCHEM_EXACT_MASS>  (1) 
244.14633

>  <PUBCHEM_MOLECULAR_FORMULA>  (1) 
C16H20O2

>  <PUBCHEM_MOLECULAR_WEIGHT>  (1) 
244.33

>  <PUBCHEM_OPENEYE_CAN_SMILES>  (1) 
C1C=CCC(=CC=CC2C(O2)CCCC=O)C=C1

>  <PUBCHEM_OPENEYE_ISO_SMILES>  (1) 
C1C=CCC(=CC=CC2C(O2)CCCC=O)C=C1

>  <PUBCHEM_CACTVS_TPSA>  (1) 
29.6

>  <PUBCHEM_MONOISOTOPIC_WEIGHT>  (1) 
244.14633

>  <PUBCHEM_TOTAL_CHARGE>  (1) 
0

>  <PUBCHEM_HEAVY_ATOM_COUNT>  (1) 
18

>  <PUBCHEM_ATOM_DEF_STEREO_COUNT>  (1) 
0

>  <PUBCHEM_ATOM_UDEF_STEREO_COUNT>  (1) 
2

>  <PUBCHEM_BOND_DEF_STEREO_COUNT>  (1) 
0

>  <PUBCHEM_BOND_UDEF_STEREO_COUNT>  (1) 
2

>  <PUBCHEM_ISOTOPIC_ATOM_COUNT>  (1) 
0

>  <PUBCHEM_COMPONENT_COUNT>  (1) 
1

>  <PUBCHEM_CACTVS_TAUTO_COUNT>  (1) 
-1

>  <PUBCHEM_COORDINATE_TYPE>  (1) 
1
5
255

>  <PUBCHEM_BONDANNOTATIONS>  (1) 
10  12  1
3  5  3
4  7  3
7  9  1

$$$$
