859
     RDKit          2D

 43 42  0  0  1  0  0  0  0  0999 V2000
   -1.6679   -1.8866    0.0000 S   0  0  0  0  0  0  0  0  0  0  0  0
   -1.9940   -5.8418    0.0000 O   0  0  0  0  0  0  0  0  0  0  0  0
   -6.0020   -0.6760    0.0000 O   0  0  0  0  0  0  0  0  0  0  0  0
   -4.2312    2.8757    0.0000 O   0  0  0  0  0  0  0  0  0  0  0  0
   -8.8446   -5.2770    0.0000 O   0  0  0  0  0  0  0  0  0  0  0  0
   -7.0270   -7.1335    0.0000 O   0  0  0  0  0  0  0  0  0  0  0  0
   -0.3167    8.5261    0.0000 O   0  0  0  0  0  0  0  0  0  0  0  0
   -2.8333    7.8803    0.0000 O   0  0  0  0  0  0  0  0  0  0  0  0
   -6.0487    4.7322    0.0000 O   0  0  0  0  0  0  0  0  0  0  0  0
   -2.4136    1.0192    0.0000 N   0  0  0  0  0  0  0  0  0  0  0  0
   -5.3030    1.8263    0.0000 N   0  0  0  0  0  0  0  0  0  0  0  0
    0.4290    5.6203    0.0000 N   0  0  0  0  0  0  0  0  0  0  0  0
   -2.3668   -4.3889    0.0000 C   0  0  0  0  0  0  0  0  0  0  0  0
   -1.2950   -3.3395    0.0000 C   0  0  0  0  0  0  0  0  0  0  0  0
   -3.8115   -3.9854    0.0000 C   0  0  0  0  0  0  0  0  0  0  0  0
   -4.8834   -5.0347    0.0000 C   0  0  0  0  0  0  0  0  0  0  0  0
   -3.4854   -0.0301    0.0000 C   0  0  0  0  0  0  0  0  0  0  0  0
   -3.1126   -1.4831    0.0000 C   0  0  0  0  0  0  0  0  0  0  0  0
   -6.3281   -4.6312    0.0000 C   0  0  0  0  0  0  0  0  0  0  0  0
    0.1497   -3.7431    0.0000 C   0  0  0  0  0  0  0  0  0  0  0  0
   -4.9301    0.3734    0.0000 C   0  0  0  0  0  0  0  0  0  0  0  0
   -1.7147    3.5215    0.0000 C   0  0  0  0  0  0  0  0  0  0  0  0
   -2.7865    2.4721    0.0000 C   0  0  0  0  0  0  0  0  0  0  0  0
   -2.0875    4.9744    0.0000 C   0  0  0  0  0  0  0  0  0  0  0  0
    1.2215   -2.6937    0.0000 C   0  0  0  0  0  0  0  0  0  0  0  0
   -1.0157    6.0238    0.0000 C   0  0  0  0  0  0  0  0  0  0  0  0
   -7.3999   -5.6805    0.0000 C   0  0  0  0  0  0  0  0  0  0  0  0
   -6.7477    2.2299    0.0000 C   0  0  0  0  0  0  0  0  0  0  0  0
   12.7323   -0.5139    0.0000 C   0  0  0  0  0  0  0  0  0  0  0  0
   13.8041    0.5354    0.0000 C   0  0  0  0  0  0  0  0  0  0  0  0
    2.6662   -3.0972    0.0000 C   0  0  0  0  0  0  0  0  0  0  0  0
   11.2876   -0.1104    0.0000 C   0  0  0  0  0  0  0  0  0  0  0  0
   15.2488    0.1319    0.0000 C   0  0  0  0  0  0  0  0  0  0  0  0
   -1.3886    7.4767    0.0000 C   0  0  0  0  0  0  0  0  0  0  0  0
   -7.1206    3.6828    0.0000 C   0  0  0  0  0  0  0  0  0  0  0  0
    3.7380   -2.0479    0.0000 C   0  0  0  0  0  0  0  0  0  0  0  0
   10.2158   -1.1598    0.0000 C   0  0  0  0  0  0  0  0  0  0  0  0
   16.3207    1.1812    0.0000 C   0  0  0  0  0  0  0  0  0  0  0  0
    8.7711   -0.7562    0.0000 C   0  0  0  0  0  0  0  0  0  0  0  0
    7.6993   -1.8056    0.0000 C   0  0  0  0  0  0  0  0  0  0  0  0
    5.1827   -2.4514    0.0000 C   0  0  0  0  0  0  0  0  0  0  0  0
   -8.5653    4.0863    0.0000 C   0  0  0  0  0  0  0  0  0  0  0  0
    6.2546   -1.4021    0.0000 C   0  0  0  0  0  0  0  0  0  0  0  0
  1 14  1  0
  1 18  1  0
  2 13  1  0
  3 21  2  0
  4 23  2  0
  5 27  1  0
  6 27  2  0
  7 34  1  0
  8 34  2  0
  9 35  2  0
 10 17  1  0
 10 23  1  0
 11 21  1  0
 11 28  1  0
 12 26  1  0
 13 14  1  0
 13 15  1  0
 14 20  1  0
 15 16  1  0
 16 19  1  0
 17 18  1  0
 17 21  1  0
 19 27  1  0
 20 25  2  3
 22 23  1  0
 22 24  1  0
 24 26  1  0
 25 31  1  0
 26 34  1  0
 28 35  1  0
 29 30  1  0
 29 32  1  0
 30 33  1  0
 31 36  2  3
 32 37  1  0
 33 38  1  0
 35 42  1  0
 36 41  1  0
 37 39  2  3
 39 40  1  0
 40 43  1  0
 41 43  2  3
M  END
>  <PUBCHEM_COMPOUND_CID>  (1) 
859

>  <PUBCHEM_COMPOUND_CANONICALIZED>  (1) 
1

>  <PUBCHEM_CACTVS_COMPLEXITY>  (1) 
980

>  <PUBCHEM_CACTVS_HBOND_ACCEPTOR>  (1) 
10

>  <PUBCHEM_CACTVS_HBOND_DONOR>  (1) 
6

>  <PUBCHEM_CACTVS_ROTATABLE_BOND>  (1) 
25

>  <PUBCHEM_CACTVS_SUBSKEYS>  (1) 
AAADcfB7PABAAAAAAAAAAAAAAAAAAAAAAAAAAAAAAAAAAAAAAAAAHgQQCAAACDzlwAaCCALAAgiIAKHSGAAAAAAgABAICIGIAAgKUBIggSAUQAAE1gCogAOc/ybAAAAAAAAAAAAAAAAAAAAAAAAAAAAAAA==

>  <PUBCHEM_IUPAC_OPENEYE_NAME>  (1) 
6-[3-(acetonylamino)-2-[(4-amino-4-carboxy-butanoyl)amino]-3-oxo-propyl]sulfanyl-5-hydroxy-icosa-7,9,11,14-tetraenoic acid

>  <PUBCHEM_IUPAC_CAS_NAME>  (1) 
6-[[2-[(4-amino-4-carboxy-1-oxobutyl)amino]-3-oxo-3-(2-oxopropylamino)propyl]thio]-5-hydroxyeicosa-7,9,11,14-tetraenoic acid

>  <PUBCHEM_IUPAC_NAME_MARKUP>  (1) 
6-[2-[(4-amino-4-carboxybutanoyl)amino]-3-oxo-3-(2-oxopropylamino)propyl]sulfanyl-5-hydroxyicosa-7,9,11,14-tetraenoic acid

>  <PUBCHEM_IUPAC_NAME>  (1) 
6-[2-[(4-amino-4-carboxybutanoyl)amino]-3-oxo-3-(2-oxopropylamino)propyl]sulfanyl-5-hydroxyicosa-7,9,11,14-tetraenoic acid

>  <PUBCHEM_IUPAC_SYSTEMATIC_NAME>  (1) 
6-[2-[(4-azanyl-5-oxidanyl-5-oxidanylidene-pentanoyl)amino]-3-oxidanylidene-3-(2-oxidanylidenepropylamino)propyl]sulfanyl-5-oxidanyl-icosa-7,9,11,14-tetraenoic acid

>  <PUBCHEM_IUPAC_TRADITIONAL_NAME>  (1) 
6-[[3-(acetonylamino)-2-[(4-amino-4-carboxy-butanoyl)amino]-3-keto-propyl]thio]-5-hydroxy-eicosa-7,9,11,14-tetraenoic acid

>  <PUBCHEM_IUPAC_INCHI>  (1) 
InChI=1S/C31H49N3O8S/c1-3-4-5-6-7-8-9-10-11-12-13-14-17-27(26(36)16-15-18-29(38)39)43-22-25(30(40)33-21-23(2)35)34-28(37)20-19-24(32)31(41)42/h7-8,10-14,17,24-27,36H,3-6,9,15-16,18-22,32H2,1-2H3,(H,33,40)(H,34,37)(H,38,39)(H,41,42)

>  <PUBCHEM_IUPAC_INCHIKEY>  (1) 
VGQBZHKBIHXHBO-UHFFFAOYSA-N

>  <PUBCHEM_XLOGP3_AA>  (1) 
0.8

>  <PUBCHEM_EXACT_MASS>  (1) 
623.324037

>  <PUBCHEM_MOLECULAR_FORMULA>  (1) 
C31H49N3O8S

>  <PUBCHEM_MOLECULAR_WEIGHT>  (1) 
623.8

>  <PUBCHEM_OPENEYE_CAN_SMILES>  (1) 
CCCCCC=CCC=CC=CC=CC(C(CCCC(=O)O)O)SCC(C(=O)NCC(=O)C)NC(=O)CCC(C(=O)O)N

>  <PUBCHEM_OPENEYE_ISO_SMILES>  (1) 
CCCCCC=CCC=CC=CC=CC(C(CCCC(=O)O)O)SCC(C(=O)NCC(=O)C)NC(=O)CCC(C(=O)O)N

>  <PUBCHEM_CACTVS_TPSA>  (1) 
221

>  <PUBCHEM_MONOISOTOPIC_WEIGHT>  (1) 
623.324037

>  <PUBCHEM_TOTAL_CHARGE>  (1) 
0

>  <PUBCHEM_HEAVY_ATOM_COUNT>  (1) 
43

>  <PUBCHEM_ATOM_DEF_STEREO_COUNT>  (1) 
0

>  <PUBCHEM_ATOM_UDEF_STEREO_COUNT>  (1) 
4

>  <PUBCHEM_BOND_DEF_STEREO_COUNT>  (1) 
0

>  <PUBCHEM_BOND_UDEF_STEREO_COUNT>  (1) 
4

>  <PUBCHEM_ISOTOPIC_ATOM_COUNT>  (1) 
0

>  <PUBCHEM_COMPONENT_COUNT>  (1) 
1

>  <PUBCHEM_CACTVS_TAUTO_COUNT>  (1) 
-1

>  <PUBCHEM_COORDINATE_TYPE>  (1) 
1
5
255

>  <PUBCHEM_BONDANNOTATIONS>  (1) 
26  12  3
14  20  3
17  18  3
13  2  3
20  25  1
31  36  1
37  39  1
41  43  1

$$$$
