862
     RDKit          2D

 95 96  0  0  1  0  0  0  0  0999 V2000
    6.5566   -6.8711    0.0000 P   0  0  0  0  0  0  0  0  0  0  0  0
   -2.0209    1.3858    0.0000 P   0  0  0  0  0  0  0  0  0  0  0  0
    2.4717   -4.9834    0.0000 O   0  0  0  0  0  0  0  0  0  0  0  0
    0.9742   -2.8604    0.0000 O   0  0  0  0  0  0  0  0  0  0  0  0
   -1.7491   -1.6019    0.0000 O   0  0  0  0  0  0  0  0  0  0  0  0
    6.1490   -2.3896    0.0000 O   0  0  0  0  0  0  0  0  0  0  0  0
    6.4207   -5.3773    0.0000 O   0  0  0  0  0  0  0  0  0  0  0  0
   -5.4264   -4.1957    0.0000 O   0  0  0  0  0  0  0  0  0  0  0  0
   -2.7031   -5.4541    0.0000 O   0  0  0  0  0  0  0  0  0  0  0  0
   -3.2466    0.5212    0.0000 O   0  0  0  0  0  0  0  0  0  0  0  0
    2.7435   -7.9711    0.0000 O   0  0  0  0  0  0  0  0  0  0  0  0
    6.0131   -0.8958    0.0000 O   0  0  0  0  0  0  0  0  0  0  0  0
    5.0628   -7.0070    0.0000 O   0  0  0  0  0  0  0  0  0  0  0  0
    6.6925   -8.3650    0.0000 O   0  0  0  0  0  0  0  0  0  0  0  0
   -4.6083    1.1504    0.0000 O   0  0  0  0  0  0  0  0  0  0  0  0
    7.6465   -4.5127    0.0000 O   0  0  0  0  0  0  0  0  0  0  0  0
    8.0504   -6.7353    0.0000 O   0  0  0  0  0  0  0  0  0  0  0  0
    7.1030    1.4626    0.0000 O   0  0  0  0  0  0  0  0  0  0  0  0
   -6.9239   -2.0726    0.0000 O   0  0  0  0  0  0  0  0  0  0  0  0
   -1.1563    0.1600    0.0000 O   0  0  0  0  0  0  0  0  0  0  0  0
   -0.7951    2.2504    0.0000 O   0  0  0  0  0  0  0  0  0  0  0  0
   -2.8855    2.6115    0.0000 O   0  0  0  0  0  0  0  0  0  0  0  0
   -6.1058    3.2735    0.0000 O   0  0  0  0  0  0  0  0  0  0  0  0
   10.2339   -4.2774    0.0000 O   0  0  0  0  0  0  0  0  0  0  0  0
   -9.5113   -2.3079    0.0000 O   0  0  0  0  0  0  0  0  0  0  0  0
    3.4257   -1.1312    0.0000 N   0  0  0  0  0  0  0  0  0  0  0  0
   -5.6981   -1.2080    0.0000 N   0  0  0  0  0  0  0  0  0  0  0  0
    3.5616   -2.6250    0.0000 C   0  0  0  0  0  0  0  0  0  0  0  0
    4.9232   -3.2542    0.0000 C   0  0  0  0  0  0  0  0  0  0  0  0
    5.0591   -4.7481    0.0000 C   0  0  0  0  0  0  0  0  0  0  0  0
    2.3358   -3.4896    0.0000 C   0  0  0  0  0  0  0  0  0  0  0  0
   -1.6132   -3.0957    0.0000 C   0  0  0  0  0  0  0  0  0  0  0  0
   -2.8390   -3.9603    0.0000 C   0  0  0  0  0  0  0  0  0  0  0  0
   -4.2006   -3.3311    0.0000 C   0  0  0  0  0  0  0  0  0  0  0  0
    3.8333   -5.6127    0.0000 C   0  0  0  0  0  0  0  0  0  0  0  0
   -4.3365   -1.8372    0.0000 C   0  0  0  0  0  0  0  0  0  0  0  0
   -3.1107   -0.9726    0.0000 C   0  0  0  0  0  0  0  0  0  0  0  0
   -0.2516   -3.7249    0.0000 C   0  0  0  0  0  0  0  0  0  0  0  0
    3.9692   -7.1065    0.0000 C   0  0  0  0  0  0  0  0  0  0  0  0
    4.6514   -0.2666    0.0000 C   0  0  0  0  0  0  0  0  0  0  0  0
   -5.8340    0.2858    0.0000 C   0  0  0  0  0  0  0  0  0  0  0  0
    7.5106   -3.0189    0.0000 C   0  0  0  0  0  0  0  0  0  0  0  0
    4.5156    1.2273    0.0000 C   0  0  0  0  0  0  0  0  0  0  0  0
   -6.7880   -3.5664    0.0000 C   0  0  0  0  0  0  0  0  0  0  0  0
   -7.1957    0.9151    0.0000 C   0  0  0  0  0  0  0  0  0  0  0  0
    8.7364   -2.1543    0.0000 C   0  0  0  0  0  0  0  0  0  0  0  0
    5.7413    2.0919    0.0000 C   0  0  0  0  0  0  0  0  0  0  0  0
   -8.0138   -4.4310    0.0000 C   0  0  0  0  0  0  0  0  0  0  0  0
   -7.3315    2.4089    0.0000 C   0  0  0  0  0  0  0  0  0  0  0  0
   10.0980   -2.7835    0.0000 C   0  0  0  0  0  0  0  0  0  0  0  0
    5.6054    3.5857    0.0000 C   0  0  0  0  0  0  0  0  0  0  0  0
   -9.3754   -3.8018    0.0000 C   0  0  0  0  0  0  0  0  0  0  0  0
   -8.6932    3.0381    0.0000 C   0  0  0  0  0  0  0  0  0  0  0  0
   11.3237   -1.9189    0.0000 C   0  0  0  0  0  0  0  0  0  0  0  0
    6.8312    4.4503    0.0000 C   0  0  0  0  0  0  0  0  0  0  0  0
  -10.6012   -4.6664    0.0000 C   0  0  0  0  0  0  0  0  0  0  0  0
   -8.8291    4.5320    0.0000 C   0  0  0  0  0  0  0  0  0  0  0  0
   12.6854   -2.5482    0.0000 C   0  0  0  0  0  0  0  0  0  0  0  0
    6.6953    5.9441    0.0000 C   0  0  0  0  0  0  0  0  0  0  0  0
  -11.9628   -4.0371    0.0000 C   0  0  0  0  0  0  0  0  0  0  0  0
  -10.1907    5.1612    0.0000 C   0  0  0  0  0  0  0  0  0  0  0  0
   13.9111   -1.6836    0.0000 C   0  0  0  0  0  0  0  0  0  0  0  0
    7.9211    6.8087    0.0000 C   0  0  0  0  0  0  0  0  0  0  0  0
  -13.1886   -4.9017    0.0000 C   0  0  0  0  0  0  0  0  0  0  0  0
  -10.3266    6.6550    0.0000 C   0  0  0  0  0  0  0  0  0  0  0  0
   15.2728   -2.3128    0.0000 C   0  0  0  0  0  0  0  0  0  0  0  0
    7.7852    8.3025    0.0000 C   0  0  0  0  0  0  0  0  0  0  0  0
  -14.5502   -4.2725    0.0000 C   0  0  0  0  0  0  0  0  0  0  0  0
  -11.6882    7.2843    0.0000 C   0  0  0  0  0  0  0  0  0  0  0  0
   16.4985   -1.4482    0.0000 C   0  0  0  0  0  0  0  0  0  0  0  0
    9.0109    9.1671    0.0000 C   0  0  0  0  0  0  0  0  0  0  0  0
  -15.7759   -5.1371    0.0000 C   0  0  0  0  0  0  0  0  0  0  0  0
  -11.8241    8.7781    0.0000 C   0  0  0  0  0  0  0  0  0  0  0  0
   17.8602   -2.0775    0.0000 C   0  0  0  0  0  0  0  0  0  0  0  0
    8.8750   10.6610    0.0000 C   0  0  0  0  0  0  0  0  0  0  0  0
  -17.1376   -4.5078    0.0000 C   0  0  0  0  0  0  0  0  0  0  0  0
  -13.1857    9.4074    0.0000 C   0  0  0  0  0  0  0  0  0  0  0  0
   19.0859   -1.2129    0.0000 C   0  0  0  0  0  0  0  0  0  0  0  0
  -18.3633   -5.3724    0.0000 C   0  0  0  0  0  0  0  0  0  0  0  0
   10.1008   11.5256    0.0000 C   0  0  0  0  0  0  0  0  0  0  0  0
  -13.3216   10.9012    0.0000 C   0  0  0  0  0  0  0  0  0  0  0  0
   20.4476   -1.8421    0.0000 C   0  0  0  0  0  0  0  0  0  0  0  0
  -19.7250   -4.7432    0.0000 C   0  0  0  0  0  0  0  0  0  0  0  0
    9.9649   13.0194    0.0000 C   0  0  0  0  0  0  0  0  0  0  0  0
  -14.6833   11.5304    0.0000 C   0  0  0  0  0  0  0  0  0  0  0  0
   21.6733   -0.9775    0.0000 C   0  0  0  0  0  0  0  0  0  0  0  0
  -20.9507   -5.6078    0.0000 C   0  0  0  0  0  0  0  0  0  0  0  0
   11.1907   13.8840    0.0000 C   0  0  0  0  0  0  0  0  0  0  0  0
  -14.8191   13.0243    0.0000 C   0  0  0  0  0  0  0  0  0  0  0  0
   23.0350   -1.6067    0.0000 C   0  0  0  0  0  0  0  0  0  0  0  0
  -22.3124   -4.9786    0.0000 C   0  0  0  0  0  0  0  0  0  0  0  0
   11.0548   15.3778    0.0000 C   0  0  0  0  0  0  0  0  0  0  0  0
  -16.1808   13.6535    0.0000 C   0  0  0  0  0  0  0  0  0  0  0  0
   24.2607   -0.7421    0.0000 C   0  0  0  0  0  0  0  0  0  0  0  0
  -23.5381   -5.8432    0.0000 C   0  0  0  0  0  0  0  0  0  0  0  0
  1  7  1  0
  1 13  1  0
  1 14  1  0
  1 17  2  0
  2 10  1  0
  2 20  1  0
  2 21  1  0
  2 22  2  0
  3 31  1  0
  3 35  1  0
  4 31  1  0
  4 38  1  0
  5 32  1  0
  5 37  1  0
  6 29  1  0
  6 42  1  0
  7 30  1  0
  8 34  1  0
  8 44  1  0
  9 33  1  0
 10 37  1  0
 11 39  1  0
 12 40  2  0
 15 41  2  0
 16 42  2  0
 18 47  1  0
 19 44  2  0
 23 49  1  0
 24 50  1  0
 25 52  1  0
 26 28  1  0
 26 40  1  0
 27 36  1  0
 27 41  1  0
 28 29  1  0
 28 31  1  0
 29 30  1  0
 30 35  1  0
 32 33  1  0
 32 38  1  0
 33 34  1  0
 34 36  1  0
 35 39  1  0
 36 37  1  0
 40 43  1  0
 41 45  1  0
 42 46  1  0
 43 47  1  0
 44 48  1  0
 45 49  1  0
 46 50  1  0
 47 51  1  0
 48 52  1  0
 49 53  1  0
 50 54  1  0
 51 55  1  0
 52 56  1  0
 53 57  1  0
 54 58  1  0
 55 59  1  0
 56 60  1  0
 57 61  1  0
 58 62  1  0
 59 63  1  0
 60 64  1  0
 61 65  1  0
 62 66  1  0
 63 67  1  0
 64 68  1  0
 65 69  1  0
 66 70  1  0
 67 71  1  0
 68 72  1  0
 69 73  1  0
 70 74  1  0
 71 75  1  0
 72 76  1  0
 73 77  1  0
 74 78  1  0
 75 80  1  0
 76 79  1  0
 77 81  1  0
 78 82  1  0
 79 83  1  0
 80 84  1  0
 81 85  1  0
 82 86  1  0
 83 87  1  0
 84 88  1  0
 85 89  1  0
 86 90  1  0
 87 91  1  0
 88 92  1  0
 89 93  1  0
 90 94  1  0
 91 95  1  0
M  END
>  <PUBCHEM_COMPOUND_CID>  (1) 
862

>  <PUBCHEM_COMPOUND_CANONICALIZED>  (1) 
1

>  <PUBCHEM_CACTVS_COMPLEXITY>  (1) 
2080

>  <PUBCHEM_CACTVS_HBOND_ACCEPTOR>  (1) 
23

>  <PUBCHEM_CACTVS_HBOND_DONOR>  (1) 
12

>  <PUBCHEM_CACTVS_ROTATABLE_BOND>  (1) 
62

>  <PUBCHEM_CACTVS_SUBSKEYS>  (1) 
AAADcfB/PgMAAAAAAAAAAAAAAAAAAAAAAAAkSAAAAAAAAAAAAAAAHgAQCCAACDzxgAcCCALABxAIQAGQGIAAAAAAAAAAAIEIAAATEBYAgAAnQAAHNgCXAAH4+K+AAAAAAAAAAAAAAAAAAAAAAAAAAAAAAA==

>  <PUBCHEM_IUPAC_OPENEYE_NAME>  (1) 
[3-hydroxy-2-[[6-(hydroxymethyl)-3-(3-hydroxytetradecanoylamino)-4-(3-hydroxytetradecanoyloxy)-5-phosphonooxy-tetrahydropyran-2-yl]oxymethyl]-5-(3-hydroxytetradecanoylamino)-6-phosphonooxy-tetrahydropyran-4-yl] 3-hydroxytetradecanoate

>  <PUBCHEM_IUPAC_CAS_NAME>  (1) 
3-hydroxytetradecanoic acid [3-hydroxy-2-[[6-(hydroxymethyl)-4-(3-hydroxy-1-oxotetradecoxy)-3-[(3-hydroxy-1-oxotetradecyl)amino]-5-phosphonooxy-2-oxanyl]oxymethyl]-5-[(3-hydroxy-1-oxotetradecyl)amino]-6-phosphonooxy-4-oxanyl] ester

>  <PUBCHEM_IUPAC_NAME_MARKUP>  (1) 
[3-hydroxy-2-[[6-(hydroxymethyl)-3-(3-hydroxytetradecanoylamino)-4-(3-hydroxytetradecanoyloxy)-5-phosphonooxyoxan-2-yl]oxymethyl]-5-(3-hydroxytetradecanoylamino)-6-phosphonooxyoxan-4-yl] 3-hydroxytetradecanoate

>  <PUBCHEM_IUPAC_NAME>  (1) 
[3-hydroxy-2-[[6-(hydroxymethyl)-3-(3-hydroxytetradecanoylamino)-4-(3-hydroxytetradecanoyloxy)-5-phosphonooxyoxan-2-yl]oxymethyl]-5-(3-hydroxytetradecanoylamino)-6-phosphonooxyoxan-4-yl] 3-hydroxytetradecanoate

>  <PUBCHEM_IUPAC_SYSTEMATIC_NAME>  (1) 
[2-[[6-(hydroxymethyl)-3-(3-oxidanyltetradecanoylamino)-4-(3-oxidanyltetradecanoyloxy)-5-phosphonooxy-oxan-2-yl]oxymethyl]-3-oxidanyl-5-(3-oxidanyltetradecanoylamino)-6-phosphonooxy-oxan-4-yl] 3-oxidanyltetradecanoate

>  <PUBCHEM_IUPAC_TRADITIONAL_NAME>  (1) 
3-hydroxymyristic acid [3-hydroxy-5-(3-hydroxytetradecanoylamino)-2-[[3-(3-hydroxytetradecanoylamino)-4-(3-hydroxytetradecanoyloxy)-6-methylol-5-phosphonooxy-tetrahydropyran-2-yl]oxymethyl]-6-phosphonooxy-tetrahydropyran-4-yl] ester

>  <PUBCHEM_IUPAC_INCHI>  (1) 
InChI=1S/C68H130N2O23P2/c1-5-9-13-17-21-25-29-33-37-41-51(72)45-57(76)69-61-65(90-59(78)47-53(74)43-39-35-31-27-23-19-15-11-7-3)63(80)56(89-68(61)93-95(84,85)86)50-87-67-62(70-58(77)46-52(73)42-38-34-30-26-22-18-14-10-6-2)66(64(55(49-71)88-67)92-94(81,82)83)91-60(79)48-54(75)44-40-36-32-28-24-20-16-12-8-4/h51-56,61-68,71-75,80H,5-50H2,1-4H3,(H,69,76)(H,70,77)(H2,81,82,83)(H2,84,85,86)

>  <PUBCHEM_IUPAC_INCHIKEY>  (1) 
KVJWZTLXIROHIL-UHFFFAOYSA-N

>  <PUBCHEM_XLOGP3_AA>  (1) 
14.4

>  <PUBCHEM_EXACT_MASS>  (1) 
1404.853962

>  <PUBCHEM_MOLECULAR_FORMULA>  (1) 
C68H130N2O23P2

>  <PUBCHEM_MOLECULAR_WEIGHT>  (1) 
1405.7

>  <PUBCHEM_OPENEYE_CAN_SMILES>  (1) 
CCCCCCCCCCCC(CC(=O)NC1C(C(C(OC1OP(=O)(O)O)COC2C(C(C(C(O2)CO)OP(=O)(O)O)OC(=O)CC(CCCCCCCCCCC)O)NC(=O)CC(CCCCCCCCCCC)O)O)OC(=O)CC(CCCCCCCCCCC)O)O

>  <PUBCHEM_OPENEYE_ISO_SMILES>  (1) 
CCCCCCCCCCCC(CC(=O)NC1C(C(C(OC1OP(=O)(O)O)COC2C(C(C(C(O2)CO)OP(=O)(O)O)OC(=O)CC(CCCCCCCCCCC)O)NC(=O)CC(CCCCCCCCCCC)O)O)OC(=O)CC(CCCCCCCCCCC)O)O

>  <PUBCHEM_CACTVS_TPSA>  (1) 
393

>  <PUBCHEM_MONOISOTOPIC_WEIGHT>  (1) 
1404.853962

>  <PUBCHEM_TOTAL_CHARGE>  (1) 
0

>  <PUBCHEM_HEAVY_ATOM_COUNT>  (1) 
95

>  <PUBCHEM_ATOM_DEF_STEREO_COUNT>  (1) 
0

>  <PUBCHEM_ATOM_UDEF_STEREO_COUNT>  (1) 
14

>  <PUBCHEM_BOND_DEF_STEREO_COUNT>  (1) 
0

>  <PUBCHEM_BOND_UDEF_STEREO_COUNT>  (1) 
0

>  <PUBCHEM_ISOTOPIC_ATOM_COUNT>  (1) 
0

>  <PUBCHEM_COMPONENT_COUNT>  (1) 
1

>  <PUBCHEM_CACTVS_TAUTO_COUNT>  (1) 
-1

>  <PUBCHEM_COORDINATE_TYPE>  (1) 
1
5
255

>  <PUBCHEM_BONDANNOTATIONS>  (1) 
37  10  3
47  18  3
49  23  3
50  24  3
52  25  3
28  26  3
36  27  3
32  38  3
35  39  3
31  4  3
29  6  3
30  7  3
34  8  3
33  9  3

$$$$
