87
     RDKit          2D

  7  6  0  0  1  0  0  0  0  0999 V2000
   -2.2500   -0.5567    0.0000 O   0  0  0  0  0  0  0  0  0  0  0  0
    0.0000   -1.8558    0.0000 O   0  0  0  0  0  0  0  0  0  0  0  0
    2.2500   -0.5567    0.0000 O   0  0  0  0  0  0  0  0  0  0  0  0
   -0.0000    0.7423    0.0000 C   0  0  0  0  0  0  0  0  0  0  0  0
   -1.5000    0.7423    0.0000 C   0  0  0  0  0  0  0  0  0  0  0  0
    0.7500    2.0413    0.0000 C   0  0  0  0  0  0  0  0  0  0  0  0
    0.7500   -0.5567    0.0000 C   0  0  0  0  0  0  0  0  0  0  0  0
  1  5  1  0
  2  7  1  0
  3  7  2  0
  4  5  1  0
  4  6  1  0
  4  7  1  0
M  END
>  <PUBCHEM_COMPOUND_CID>  (1) 
87

>  <PUBCHEM_COMPOUND_CANONICALIZED>  (1) 
1

>  <PUBCHEM_CACTVS_COMPLEXITY>  (1) 
69.3

>  <PUBCHEM_CACTVS_HBOND_ACCEPTOR>  (1) 
3

>  <PUBCHEM_CACTVS_HBOND_DONOR>  (1) 
2

>  <PUBCHEM_CACTVS_ROTATABLE_BOND>  (1) 
2

>  <PUBCHEM_CACTVS_SUBSKEYS>  (1) 
AAADccBgMAAAAAAAAAAAAAAAAAAAAAAAAAAAAAAAAAAAAAAAAAAAGgAACAAADQCggAICCAAAAgAIAACQCAAAAAAAAAAAAAEAAAAAEAQAAAAAQAABIAAAAAAAAAAAAAAAAAAAAAAAAAAAAAAAAAAAAAAAAA==

>  <PUBCHEM_IUPAC_OPENEYE_NAME>  (1) 
3-hydroxy-2-methyl-propanoic acid

>  <PUBCHEM_IUPAC_CAS_NAME>  (1) 
3-hydroxy-2-methylpropanoic acid

>  <PUBCHEM_IUPAC_NAME_MARKUP>  (1) 
3-hydroxy-2-methylpropanoic acid

>  <PUBCHEM_IUPAC_NAME>  (1) 
3-hydroxy-2-methylpropanoic acid

>  <PUBCHEM_IUPAC_SYSTEMATIC_NAME>  (1) 
2-methyl-3-oxidanyl-propanoic acid

>  <PUBCHEM_IUPAC_TRADITIONAL_NAME>  (1) 
3-hydroxy-2-methyl-propionic acid

>  <PUBCHEM_IUPAC_INCHI>  (1) 
InChI=1S/C4H8O3/c1-3(2-5)4(6)7/h3,5H,2H2,1H3,(H,6,7)

>  <PUBCHEM_IUPAC_INCHIKEY>  (1) 
DBXBTMSZEOQQDU-UHFFFAOYSA-N

>  <PUBCHEM_XLOGP3_AA>  (1) 
-0.4

>  <PUBCHEM_EXACT_MASS>  (1) 
104.047344

>  <PUBCHEM_MOLECULAR_FORMULA>  (1) 
C4H8O3

>  <PUBCHEM_MOLECULAR_WEIGHT>  (1) 
104.1

>  <PUBCHEM_OPENEYE_CAN_SMILES>  (1) 
CC(CO)C(=O)O

>  <PUBCHEM_OPENEYE_ISO_SMILES>  (1) 
CC(CO)C(=O)O

>  <PUBCHEM_CACTVS_TPSA>  (1) 
57.5

>  <PUBCHEM_MONOISOTOPIC_WEIGHT>  (1) 
104.047344

>  <PUBCHEM_TOTAL_CHARGE>  (1) 
0

>  <PUBCHEM_HEAVY_ATOM_COUNT>  (1) 
7

>  <PUBCHEM_ATOM_DEF_STEREO_COUNT>  (1) 
0

>  <PUBCHEM_ATOM_UDEF_STEREO_COUNT>  (1) 
1

>  <PUBCHEM_BOND_DEF_STEREO_COUNT>  (1) 
0

>  <PUBCHEM_BOND_UDEF_STEREO_COUNT>  (1) 
0

>  <PUBCHEM_ISOTOPIC_ATOM_COUNT>  (1) 
0

>  <PUBCHEM_COMPONENT_COUNT>  (1) 
1

>  <PUBCHEM_CACTVS_TAUTO_COUNT>  (1) 
-1

>  <PUBCHEM_COORDINATE_TYPE>  (1) 
1
5
255

>  <PUBCHEM_BONDANNOTATIONS>  (1) 
4  6  3

$$$$
