88
     RDKit          2D

 54 56  0  0  1  0  0  0  0  0999 V2000
  -14.5676   -0.4950    0.0000 S   0  0  0  0  0  0  0  0  0  0  0  0
    3.9007   -1.7667    0.0000 P   0  0  0  0  0  0  0  0  0  0  0  0
    3.4799    3.2521    0.0000 P   0  0  0  0  0  0  0  0  0  0  0  0
    0.8840    3.1450    0.0000 P   0  0  0  0  0  0  0  0  0  0  0  0
    7.5434    1.0279    0.0000 O   0  0  0  0  0  0  0  0  0  0  0  0
    5.3451   -2.1711    0.0000 O   0  0  0  0  0  0  0  0  0  0  0  0
    8.5624   -2.7174    0.0000 O   0  0  0  0  0  0  0  0  0  0  0  0
    4.8087    2.5563    0.0000 O   0  0  0  0  0  0  0  0  0  0  0  0
    4.3050   -0.3223    0.0000 O   0  0  0  0  0  0  0  0  0  0  0  0
    2.4562   -1.3624    0.0000 O   0  0  0  0  0  0  0  0  0  0  0  0
    2.1510    3.9480    0.0000 O   0  0  0  0  0  0  0  0  0  0  0  0
   -0.3830    2.3421    0.0000 O   0  0  0  0  0  0  0  0  0  0  0  0
    3.4963   -3.2112    0.0000 O   0  0  0  0  0  0  0  0  0  0  0  0
    4.1757    4.5810    0.0000 O   0  0  0  0  0  0  0  0  0  0  0  0
   -2.7934   -2.2611    0.0000 O   0  0  0  0  0  0  0  0  0  0  0  0
    2.7840    1.9233    0.0000 O   0  0  0  0  0  0  0  0  0  0  0  0
    1.6869    1.8780    0.0000 O   0  0  0  0  0  0  0  0  0  0  0  0
    0.0811    4.4121    0.0000 O   0  0  0  0  0  0  0  0  0  0  0  0
   -4.2459    1.4321    0.0000 O   0  0  0  0  0  0  0  0  0  0  0  0
   -9.4377    1.2179    0.0000 O   0  0  0  0  0  0  0  0  0  0  0  0
  -15.7728   -2.7966    0.0000 O   0  0  0  0  0  0  0  0  0  0  0  0
  -18.5541    1.5925    0.0000 O   0  0  0  0  0  0  0  0  0  0  0  0
   10.0762    0.1736    0.0000 N   0  0  0  0  0  0  0  0  0  0  0  0
   12.2509    1.2513    0.0000 N   0  0  0  0  0  0  0  0  0  0  0  0
   11.0299   -2.3958    0.0000 N   0  0  0  0  0  0  0  0  0  0  0  0
   13.6227   -2.5606    0.0000 N   0  0  0  0  0  0  0  0  0  0  0  0
   15.0619   -0.3976    0.0000 N   0  0  0  0  0  0  0  0  0  0  0  0
   -5.4511   -0.8695    0.0000 N   0  0  0  0  0  0  0  0  0  0  0  0
  -10.6428   -1.0837    0.0000 N   0  0  0  0  0  0  0  0  0  0  0  0
    6.4175   -1.1223    0.0000 C   0  0  0  0  0  0  0  0  0  0  0  0
    7.8964   -1.3734    0.0000 C   0  0  0  0  0  0  0  0  0  0  0  0
    6.1994    0.3618    0.0000 C   0  0  0  0  0  0  0  0  0  0  0  0
    8.5922   -0.0445    0.0000 C   0  0  0  0  0  0  0  0  0  0  0  0
    4.8705    1.0576    0.0000 C   0  0  0  0  0  0  0  0  0  0  0  0
   11.1250   -0.8988    0.0000 C   0  0  0  0  0  0  0  0  0  0  0  0
   10.7720    1.5025    0.0000 C   0  0  0  0  0  0  0  0  0  0  0  0
   12.4690   -0.2327    0.0000 C   0  0  0  0  0  0  0  0  0  0  0  0
   -1.5882    0.0405    0.0000 C   0  0  0  0  0  0  0  0  0  0  0  0
   -2.8552   -0.7624    0.0000 C   0  0  0  0  0  0  0  0  0  0  0  0
   -0.3212    0.8434    0.0000 C   0  0  0  0  0  0  0  0  0  0  0  0
   13.7179   -1.0636    0.0000 C   0  0  0  0  0  0  0  0  0  0  0  0
   -2.3911    1.3075    0.0000 C   0  0  0  0  0  0  0  0  0  0  0  0
   -0.7853   -1.2265    0.0000 C   0  0  0  0  0  0  0  0  0  0  0  0
   12.2787   -3.2267    0.0000 C   0  0  0  0  0  0  0  0  0  0  0  0
   -4.1841   -0.0666    0.0000 C   0  0  0  0  0  0  0  0  0  0  0  0
   -6.7800   -0.1737    0.0000 C   0  0  0  0  0  0  0  0  0  0  0  0
   -8.0470   -0.9766    0.0000 C   0  0  0  0  0  0  0  0  0  0  0  0
   -9.3758   -0.2808    0.0000 C   0  0  0  0  0  0  0  0  0  0  0  0
  -11.9717   -0.3879    0.0000 C   0  0  0  0  0  0  0  0  0  0  0  0
  -13.2387   -1.1908    0.0000 C   0  0  0  0  0  0  0  0  0  0  0  0
  -17.1634   -0.6021    0.0000 C   0  0  0  0  0  0  0  0  0  0  0  0
  -15.8346   -1.2979    0.0000 C   0  0  0  0  0  0  0  0  0  0  0  0
  -17.2253    0.8967    0.0000 C   0  0  0  0  0  0  0  0  0  0  0  0
  -18.4304   -1.4050    0.0000 C   0  0  0  0  0  0  0  0  0  0  0  0
  1 50  1  0
  1 52  1  0
  2  6  1  0
  2  9  1  0
  2 10  1  0
  2 13  2  0
  3  8  1  0
  3 11  1  0
  3 14  1  0
  3 16  2  0
  4 11  1  0
  4 12  1  0
  4 17  1  0
  4 18  2  0
  5 32  1  0
  5 33  1  0
  6 30  1  0
  7 31  1  0
  8 34  1  0
 12 40  1  0
 15 39  1  0
 19 45  2  0
 20 48  2  0
 21 52  2  0
 22 53  1  0
 23 33  1  0
 23 35  1  0
 23 36  1  0
 24 36  2  0
 24 37  1  0
 25 35  1  0
 25 44  2  0
 26 41  2  0
 26 44  1  0
 27 41  1  0
 28 45  1  0
 28 46  1  0
 29 48  1  0
 29 49  1  0
 30 31  1  0
 30 32  1  0
 31 33  1  0
 32 34  1  0
 35 37  2  0
 37 41  1  0
 38 39  1  0
 38 40  1  0
 38 42  1  0
 38 43  1  0
 39 45  1  0
 46 47  1  0
 47 48  1  0
 49 50  1  0
 51 52  1  0
 51 53  1  0
 51 54  1  0
M  END
>  <PUBCHEM_COMPOUND_CID>  (1) 
88

>  <PUBCHEM_COMPOUND_CANONICALIZED>  (1) 
1

>  <PUBCHEM_CACTVS_COMPLEXITY>  (1) 
1450

>  <PUBCHEM_CACTVS_HBOND_ACCEPTOR>  (1) 
23

>  <PUBCHEM_CACTVS_HBOND_DONOR>  (1) 
10

>  <PUBCHEM_CACTVS_ROTATABLE_BOND>  (1) 
22

>  <PUBCHEM_CACTVS_SUBSKEYS>  (1) 
AAADcfB7vgNAAAAAAAAAAAAAAAAAAWJAAAAsAAAAAAAAAFgB+AAAHgQQCCAADxzl1waH8L/MFxioQQdxdIKAgC0RELABUKFoVBCDWB5gyEAeRAgPNgLzACDyMAIJAAAAAAAAAAAAAAAAAAAAAAAAAAAAAA==

>  <PUBCHEM_IUPAC_OPENEYE_NAME>  (1) 
S-[2-[3-[[4-[[[5-(6-aminopurin-9-yl)-4-hydroxy-3-phosphonooxy-tetrahydrofuran-2-yl]methoxy-hydroxy-phosphoryl]oxy-hydroxy-phosphoryl]oxy-2-hydroxy-3,3-dimethyl-butanoyl]amino]propanoylamino]ethyl] 3-hydroxy-2-methyl-propanethioate

>  <PUBCHEM_IUPAC_CAS_NAME>  (1) 
3-hydroxy-2-methylpropanethioic acid S-[2-[[3-[[4-[[[5-(6-aminopurin-9-yl)-4-hydroxy-3-phosphonooxy-2-oxolanyl]methoxy-hydroxyphosphoryl]oxy-hydroxyphosphoryl]oxy-2-hydroxy-3,3-dimethyl-1-oxobutyl]amino]-1-oxopropyl]amino]ethyl] ester

>  <PUBCHEM_IUPAC_NAME_MARKUP>  (1) 
<I>S</I>-[2-[3-[[4-[[[5-(6-aminopurin-9-yl)-4-hydroxy-3-phosphonooxyoxolan-2-yl]methoxy-hydroxyphosphoryl]oxy-hydroxyphosphoryl]oxy-2-hydroxy-3,3-dimethylbutanoyl]amino]propanoylamino]ethyl] 3-hydroxy-2-methylpropanethioate

>  <PUBCHEM_IUPAC_NAME>  (1) 
S-[2-[3-[[4-[[[5-(6-aminopurin-9-yl)-4-hydroxy-3-phosphonooxyoxolan-2-yl]methoxy-hydroxyphosphoryl]oxy-hydroxyphosphoryl]oxy-2-hydroxy-3,3-dimethylbutanoyl]amino]propanoylamino]ethyl] 3-hydroxy-2-methylpropanethioate

>  <PUBCHEM_IUPAC_SYSTEMATIC_NAME>  (1) 
S-[2-[3-[[4-[[[5-(6-aminopurin-9-yl)-4-oxidanyl-3-phosphonooxy-oxolan-2-yl]methoxy-oxidanyl-phosphoryl]oxy-oxidanyl-phosphoryl]oxy-3,3-dimethyl-2-oxidanyl-butanoyl]amino]propanoylamino]ethyl] 2-methyl-3-oxidanyl-propanethioate

>  <PUBCHEM_IUPAC_TRADITIONAL_NAME>  (1) 
3-hydroxy-2-methyl-propanethioic acid S-[2-[3-[[4-[[(5-adenin-9-yl-4-hydroxy-3-phosphonooxy-tetrahydrofuran-2-yl)methoxy-hydroxy-phosphoryl]oxy-hydroxy-phosphoryl]oxy-2-hydroxy-3,3-dimethyl-butanoyl]amino]propanoylamino]ethyl] ester

>  <PUBCHEM_IUPAC_INCHI>  (1) 
InChI=1S/C25H42N7O18P3S/c1-13(8-33)24(38)54-7-6-27-15(34)4-5-28-22(37)19(36)25(2,3)10-47-53(44,45)50-52(42,43)46-9-14-18(49-51(39,40)41)17(35)23(48-14)32-12-31-16-20(26)29-11-30-21(16)32/h11-14,17-19,23,33,35-36H,4-10H2,1-3H3,(H,27,34)(H,28,37)(H,42,43)(H,44,45)(H2,26,29,30)(H2,39,40,41)

>  <PUBCHEM_IUPAC_INCHIKEY>  (1) 
WWEOGFZEFHPUAM-UHFFFAOYSA-N

>  <PUBCHEM_XLOGP3_AA>  (1) 
-5.8

>  <PUBCHEM_EXACT_MASS>  (1) 
853.15199

>  <PUBCHEM_MOLECULAR_FORMULA>  (1) 
C25H42N7O18P3S

>  <PUBCHEM_MOLECULAR_WEIGHT>  (1) 
853.6

>  <PUBCHEM_OPENEYE_CAN_SMILES>  (1) 
CC(CO)C(=O)SCCNC(=O)CCNC(=O)C(C(C)(C)COP(=O)(O)OP(=O)(O)OCC1C(C(C(O1)N2C=NC3=C(N=CN=C32)N)O)OP(=O)(O)O)O

>  <PUBCHEM_OPENEYE_ISO_SMILES>  (1) 
CC(CO)C(=O)SCCNC(=O)CCNC(=O)C(C(C)(C)COP(=O)(O)OP(=O)(O)OCC1C(C(C(O1)N2C=NC3=C(N=CN=C32)N)O)OP(=O)(O)O)O

>  <PUBCHEM_CACTVS_TPSA>  (1) 
409

>  <PUBCHEM_MONOISOTOPIC_WEIGHT>  (1) 
853.15199

>  <PUBCHEM_TOTAL_CHARGE>  (1) 
0

>  <PUBCHEM_HEAVY_ATOM_COUNT>  (1) 
54

>  <PUBCHEM_ATOM_DEF_STEREO_COUNT>  (1) 
0

>  <PUBCHEM_ATOM_UDEF_STEREO_COUNT>  (1) 
6

>  <PUBCHEM_BOND_DEF_STEREO_COUNT>  (1) 
0

>  <PUBCHEM_BOND_UDEF_STEREO_COUNT>  (1) 
0

>  <PUBCHEM_ISOTOPIC_ATOM_COUNT>  (1) 
0

>  <PUBCHEM_COMPONENT_COUNT>  (1) 
1

>  <PUBCHEM_CACTVS_TAUTO_COUNT>  (1) 
-1

>  <PUBCHEM_COORDINATE_TYPE>  (1) 
1
5
255

>  <PUBCHEM_BONDANNOTATIONS>  (1) 
39  15  3
33  23  3
23  35  8
23  36  8
24  36  8
24  37  8
25  35  8
25  44  8
26  41  8
26  44  8
32  34  3
35  37  8
37  41  8
51  54  3
30  6  3
31  7  3

$$$$
