89
     RDKit          2D

 16 16  0  0  1  0  0  0  0  0999 V2000
   -0.6575   -2.4942    0.0000 O   0  0  0  0  0  0  0  0  0  0  0  0
    3.5439    2.5156    0.0000 O   0  0  0  0  0  0  0  0  0  0  0  0
   -5.2100    0.4254    0.0000 O   0  0  0  0  0  0  0  0  0  0  0  0
   -3.3232    2.2115    0.0000 O   0  0  0  0  0  0  0  0  0  0  0  0
   -3.1476   -1.7532    0.0000 N   0  0  0  0  0  0  0  0  0  0  0  0
    0.6259    1.8189    0.0000 N   0  0  0  0  0  0  0  0  0  0  0  0
   -1.2608    0.0328    0.0000 C   0  0  0  0  0  0  0  0  0  0  0  0
   -2.7198   -0.3155    0.0000 C   0  0  0  0  0  0  0  0  0  0  0  0
   -0.2297   -1.0565    0.0000 C   0  0  0  0  0  0  0  0  0  0  0  0
    1.2293   -0.7081    0.0000 C   0  0  0  0  0  0  0  0  0  0  0  0
    1.6571    0.7296    0.0000 C   0  0  0  0  0  0  0  0  0  0  0  0
    2.2605   -1.7975    0.0000 C   0  0  0  0  0  0  0  0  0  0  0  0
    3.1161    1.0779    0.0000 C   0  0  0  0  0  0  0  0  0  0  0  0
   -3.7510    0.7738    0.0000 C   0  0  0  0  0  0  0  0  0  0  0  0
    3.7195   -1.4491    0.0000 C   0  0  0  0  0  0  0  0  0  0  0  0
    4.1473   -0.0114    0.0000 C   0  0  0  0  0  0  0  0  0  0  0  0
  1  9  2  0
  2 13  1  0
  3 14  1  0
  4 14  2  0
  5  8  1  0
  6 11  1  0
  7  8  1  0
  7  9  1  0
  8 14  1  0
  9 10  1  0
 10 11  2  0
 10 12  1  0
 11 13  1  0
 12 15  2  0
 13 16  2  0
 15 16  1  0
M  END
>  <PUBCHEM_COMPOUND_CID>  (1) 
89

>  <PUBCHEM_COMPOUND_CANONICALIZED>  (1) 
1

>  <PUBCHEM_CACTVS_COMPLEXITY>  (1) 
282

>  <PUBCHEM_CACTVS_HBOND_ACCEPTOR>  (1) 
6

>  <PUBCHEM_CACTVS_HBOND_DONOR>  (1) 
4

>  <PUBCHEM_CACTVS_ROTATABLE_BOND>  (1) 
4

>  <PUBCHEM_CACTVS_SUBSKEYS>  (1) 
AAADccBzOAAAAAAAAAAAAAAAAAAAAAAAAAAwAAAAAAAAAAABAAAAHgAQCAAADCzBmAQwzoBAAgCIAqTSSACCAAAkIAAIiIGHTMgKJjqSlZOAcYBk0BEI2cebyLCOAAABAAACEAAAAAIAAAQgAAAAAAAAAA==

>  <PUBCHEM_IUPAC_OPENEYE_NAME>  (1) 
2-amino-4-(2-amino-3-hydroxy-phenyl)-4-oxo-butanoic acid

>  <PUBCHEM_IUPAC_CAS_NAME>  (1) 
2-amino-4-(2-amino-3-hydroxyphenyl)-4-oxobutanoic acid

>  <PUBCHEM_IUPAC_NAME_MARKUP>  (1) 
2-amino-4-(2-amino-3-hydroxyphenyl)-4-oxobutanoic acid

>  <PUBCHEM_IUPAC_NAME>  (1) 
2-amino-4-(2-amino-3-hydroxyphenyl)-4-oxobutanoic acid

>  <PUBCHEM_IUPAC_SYSTEMATIC_NAME>  (1) 
2-azanyl-4-(2-azanyl-3-oxidanyl-phenyl)-4-oxidanylidene-butanoic acid

>  <PUBCHEM_IUPAC_TRADITIONAL_NAME>  (1) 
2-amino-4-(2-amino-3-hydroxy-phenyl)-4-keto-butyric acid

>  <PUBCHEM_IUPAC_INCHI>  (1) 
InChI=1S/C10H12N2O4/c11-6(10(15)16)4-8(14)5-2-1-3-7(13)9(5)12/h1-3,6,13H,4,11-12H2,(H,15,16)

>  <PUBCHEM_IUPAC_INCHIKEY>  (1) 
VCKPUUFAIGNJHC-UHFFFAOYSA-N

>  <PUBCHEM_XLOGP3_AA>  (1) 
-2.5

>  <PUBCHEM_EXACT_MASS>  (1) 
224.079707

>  <PUBCHEM_MOLECULAR_FORMULA>  (1) 
C10H12N2O4

>  <PUBCHEM_MOLECULAR_WEIGHT>  (1) 
224.21

>  <PUBCHEM_OPENEYE_CAN_SMILES>  (1) 
C1=CC(=C(C(=C1)O)N)C(=O)CC(C(=O)O)N

>  <PUBCHEM_OPENEYE_ISO_SMILES>  (1) 
C1=CC(=C(C(=C1)O)N)C(=O)CC(C(=O)O)N

>  <PUBCHEM_CACTVS_TPSA>  (1) 
127

>  <PUBCHEM_MONOISOTOPIC_WEIGHT>  (1) 
224.079707

>  <PUBCHEM_TOTAL_CHARGE>  (1) 
0

>  <PUBCHEM_HEAVY_ATOM_COUNT>  (1) 
16

>  <PUBCHEM_ATOM_DEF_STEREO_COUNT>  (1) 
0

>  <PUBCHEM_ATOM_UDEF_STEREO_COUNT>  (1) 
1

>  <PUBCHEM_BOND_DEF_STEREO_COUNT>  (1) 
0

>  <PUBCHEM_BOND_UDEF_STEREO_COUNT>  (1) 
0

>  <PUBCHEM_ISOTOPIC_ATOM_COUNT>  (1) 
0

>  <PUBCHEM_COMPONENT_COUNT>  (1) 
1

>  <PUBCHEM_CACTVS_TAUTO_COUNT>  (1) 
-1

>  <PUBCHEM_COORDINATE_TYPE>  (1) 
1
5
255

>  <PUBCHEM_BONDANNOTATIONS>  (1) 
10  11  8
10  12  8
11  13  8
12  15  8
13  16  8
15  16  8
8  5  3

$$$$
