9
     RDKit          2D

 16 16  0  0  1  0  0  0  0  0999 V2000
   -2.9021   -0.1554    0.0000 P   0  0  0  0  0  0  0  0  0  0  0  0
   -1.7370   -1.1002    0.0000 O   0  0  0  0  0  0  0  0  0  0  0  0
   -1.2657    1.8626    0.0000 O   0  0  0  0  0  0  0  0  0  0  0  0
    0.5932   -2.9897    0.0000 O   0  0  0  0  0  0  0  0  0  0  0  0
    1.5357    2.9358    0.0000 O   0  0  0  0  0  0  0  0  0  0  0  0
    3.3946   -1.9164    0.0000 O   0  0  0  0  0  0  0  0  0  0  0  0
    3.8659    1.0463    0.0000 O   0  0  0  0  0  0  0  0  0  0  0  0
   -1.9573    1.0097    0.0000 O   0  0  0  0  0  0  0  0  0  0  0  0
   -4.0672    0.7894    0.0000 O   0  0  0  0  0  0  0  0  0  0  0  0
   -3.8469   -1.3205    0.0000 O   0  0  0  0  0  0  0  0  0  0  0  0
   -0.3363   -0.5635    0.0000 C   0  0  0  0  0  0  0  0  0  0  0  0
   -0.1006    0.9178    0.0000 C   0  0  0  0  0  0  0  0  0  0  0  0
    0.8288   -1.5083    0.0000 C   0  0  0  0  0  0  0  0  0  0  0  0
    1.3001    1.4544    0.0000 C   0  0  0  0  0  0  0  0  0  0  0  0
    2.2295   -0.9717    0.0000 C   0  0  0  0  0  0  0  0  0  0  0  0
    2.4652    0.5097    0.0000 C   0  0  0  0  0  0  0  0  0  0  0  0
  1  2  1  0
  1  8  1  0
  1  9  1  0
  1 10  2  0
  2 11  1  0
  3 12  1  0
  4 13  1  0
  5 14  1  0
  6 15  1  0
  7 16  1  0
 11 12  1  0
 11 13  1  0
 12 14  1  0
 13 15  1  0
 14 16  1  0
 15 16  1  0
M  END
>  <PUBCHEM_COMPOUND_CID>  (1) 
9

>  <PUBCHEM_COMPOUND_CANONICALIZED>  (1) 
1

>  <PUBCHEM_CACTVS_COMPLEXITY>  (1) 
274

>  <PUBCHEM_CACTVS_HBOND_ACCEPTOR>  (1) 
9

>  <PUBCHEM_CACTVS_HBOND_DONOR>  (1) 
7

>  <PUBCHEM_CACTVS_ROTATABLE_BOND>  (1) 
2

>  <PUBCHEM_CACTVS_SUBSKEYS>  (1) 
AAADccBgPAIAAAAAAAAAAAAAAAAAAAAAAAAwAAAAAAAAAAAAAAAAGgAACCAACBSggAIAAAAAAxAAQAAAAIAAAAAAAAAAAAAAAAABEAIAAAAAQAAFAAABAAHAYAQAAAAAAAAAAAACAAAQAACAAAAAAAAAAA==

>  <PUBCHEM_IUPAC_OPENEYE_NAME>  (1) 
(2,3,4,5,6-pentahydroxycyclohexyl) dihydrogen phosphate

>  <PUBCHEM_IUPAC_CAS_NAME>  (1) 
(2,3,4,5,6-pentahydroxycyclohexyl) dihydrogen phosphate

>  <PUBCHEM_IUPAC_NAME_MARKUP>  (1) 
(2,3,4,5,6-pentahydroxycyclohexyl) dihydrogen phosphate

>  <PUBCHEM_IUPAC_NAME>  (1) 
(2,3,4,5,6-pentahydroxycyclohexyl) dihydrogen phosphate

>  <PUBCHEM_IUPAC_SYSTEMATIC_NAME>  (1) 
[2,3,4,5,6-pentakis(oxidanyl)cyclohexyl] dihydrogen phosphate

>  <PUBCHEM_IUPAC_TRADITIONAL_NAME>  (1) 
(2,3,4,5,6-pentahydroxycyclohexyl) dihydrogen phosphate

>  <PUBCHEM_IUPAC_INCHI>  (1) 
InChI=1S/C6H13O9P/c7-1-2(8)4(10)6(5(11)3(1)9)15-16(12,13)14/h1-11H,(H2,12,13,14)

>  <PUBCHEM_IUPAC_INCHIKEY>  (1) 
INAPMGSXUVUWAF-UHFFFAOYSA-N

>  <PUBCHEM_XLOGP3_AA>  (1) 
-4.8

>  <PUBCHEM_EXACT_MASS>  (1) 
260.029719

>  <PUBCHEM_MOLECULAR_FORMULA>  (1) 
C6H13O9P

>  <PUBCHEM_MOLECULAR_WEIGHT>  (1) 
260.14

>  <PUBCHEM_OPENEYE_CAN_SMILES>  (1) 
C1(C(C(C(C(C1O)O)OP(=O)(O)O)O)O)O

>  <PUBCHEM_OPENEYE_ISO_SMILES>  (1) 
C1(C(C(C(C(C1O)O)OP(=O)(O)O)O)O)O

>  <PUBCHEM_CACTVS_TPSA>  (1) 
168

>  <PUBCHEM_MONOISOTOPIC_WEIGHT>  (1) 
260.029719

>  <PUBCHEM_TOTAL_CHARGE>  (1) 
0

>  <PUBCHEM_HEAVY_ATOM_COUNT>  (1) 
16

>  <PUBCHEM_ATOM_DEF_STEREO_COUNT>  (1) 
0

>  <PUBCHEM_ATOM_UDEF_STEREO_COUNT>  (1) 
4

>  <PUBCHEM_BOND_DEF_STEREO_COUNT>  (1) 
0

>  <PUBCHEM_BOND_UDEF_STEREO_COUNT>  (1) 
0

>  <PUBCHEM_ISOTOPIC_ATOM_COUNT>  (1) 
0

>  <PUBCHEM_COMPONENT_COUNT>  (1) 
1

>  <PUBCHEM_CACTVS_TAUTO_COUNT>  (1) 
-1

>  <PUBCHEM_COORDINATE_TYPE>  (1) 
1
5
255

>  <PUBCHEM_BONDANNOTATIONS>  (1) 
12  3  3
13  4  3
14  5  3
15  6  3

$$$$
