92
     RDKit          2D

 25 28  0  0  1  0  0  0  0  0999 V2000
    5.5859    1.0381    0.0000 O   0  0  0  0  0  0  0  0  0  0  0  0
   -0.7588    1.9353    0.0000 O   0  0  0  0  0  0  0  0  0  0  0  0
   -5.2413    2.3317    0.0000 O   0  0  0  0  0  0  0  0  0  0  0  0
    2.0007   -0.9169    0.0000 N   0  0  0  0  0  0  0  0  0  0  0  0
   -2.7106   -3.1085    0.0000 N   0  0  0  0  0  0  0  0  0  0  0  0
    3.7238    1.5389    0.0000 C   0  0  0  0  0  0  0  0  0  0  0  0
    1.3681    0.4431    0.0000 C   0  0  0  0  0  0  0  0  0  0  0  0
    4.3564    0.1789    0.0000 C   0  0  0  0  0  0  0  0  0  0  0  0
    2.2296    1.6711    0.0000 C   0  0  0  0  0  0  0  0  0  0  0  0
    2.5248    1.0364    0.0000 C   0  0  0  0  0  0  0  0  0  0  0  0
    3.4949   -1.0490    0.0000 C   0  0  0  0  0  0  0  0  0  0  0  0
    2.0654    0.3815    0.0000 C   0  0  0  0  0  0  0  0  0  0  0  0
   -0.1261    0.5753    0.0000 C   0  0  0  0  0  0  0  0  0  0  0  0
    5.4161   -0.8828    0.0000 C   0  0  0  0  0  0  0  0  0  0  0  0
   -0.9876   -0.6527    0.0000 C   0  0  0  0  0  0  0  0  0  0  0  0
    6.8653   -0.4959    0.0000 C   0  0  0  0  0  0  0  0  0  0  0  0
   -2.4818   -0.5206    0.0000 C   0  0  0  0  0  0  0  0  0  0  0  0
   -0.3549   -2.0127    0.0000 C   0  0  0  0  0  0  0  0  0  0  0  0
   -3.3433   -1.7485    0.0000 C   0  0  0  0  0  0  0  0  0  0  0  0
   -3.1144    0.8395    0.0000 C   0  0  0  0  0  0  0  0  0  0  0  0
   -1.2164   -3.2407    0.0000 C   0  0  0  0  0  0  0  0  0  0  0  0
   -4.8374   -1.6164    0.0000 C   0  0  0  0  0  0  0  0  0  0  0  0
   -4.6086    0.9716    0.0000 C   0  0  0  0  0  0  0  0  0  0  0  0
   -5.4701   -0.2563    0.0000 C   0  0  0  0  0  0  0  0  0  0  0  0
   -4.3798    3.5596    0.0000 C   0  0  0  0  0  0  0  0  0  0  0  0
  1  8  1  0
  2 13  1  0
  3 23  1  0
  3 25  1  0
  4  7  1  0
  4 11  1  0
  4 12  1  0
  5 19  2  0
  5 21  1  0
  6  8  1  0
  6  9  1  0
  6 10  1  0
  7  9  1  0
  7 13  1  0
  8 11  1  0
  8 14  1  0
 10 12  1  0
 13 15  1  0
 14 16  2  0
 15 17  2  0
 15 18  1  0
 17 19  1  0
 17 20  1  0
 18 21  2  0
 19 22  1  0
 20 23  2  0
 22 24  2  0
 23 24  1  0
M  END
>  <PUBCHEM_COMPOUND_CID>  (1) 
92

>  <PUBCHEM_COMPOUND_CANONICALIZED>  (1) 
1

>  <PUBCHEM_CACTVS_COMPLEXITY>  (1) 
501

>  <PUBCHEM_CACTVS_HBOND_ACCEPTOR>  (1) 
5

>  <PUBCHEM_CACTVS_HBOND_DONOR>  (1) 
2

>  <PUBCHEM_CACTVS_ROTATABLE_BOND>  (1) 
4

>  <PUBCHEM_CACTVS_SUBSKEYS>  (1) 
AAADceB7MAAAAAAAAAAAAAAAAAAAAAAAAAA8WLFiAAAAAACx8AAAHgAACAAADXzhngY+xvMIFgCgAzRnRACCiCAxIiAI2CA+bJgONuLEsZuEcChkwBHY+Aew4PwOgEABAAACAAAAgAIAAAQAAAAAAAAAAA==

>  <PUBCHEM_IUPAC_OPENEYE_NAME>  (1) 
6-[hydroxy-(6-methoxy-4-quinolyl)methyl]-3-vinyl-quinuclidin-3-ol

>  <PUBCHEM_IUPAC_CAS_NAME>  (1) 
3-ethenyl-6-[hydroxy-(6-methoxy-4-quinolinyl)methyl]-1-azabicyclo[2.2.2]octan-3-ol

>  <PUBCHEM_IUPAC_NAME_MARKUP>  (1) 
3-ethenyl-6-[hydroxy-(6-methoxyquinolin-4-yl)methyl]-1-azabicyclo[2.2.2]octan-3-ol

>  <PUBCHEM_IUPAC_NAME>  (1) 
3-ethenyl-6-[hydroxy-(6-methoxyquinolin-4-yl)methyl]-1-azabicyclo[2.2.2]octan-3-ol

>  <PUBCHEM_IUPAC_SYSTEMATIC_NAME>  (1) 
3-ethenyl-6-[(6-methoxyquinolin-4-yl)-oxidanyl-methyl]-1-azabicyclo[2.2.2]octan-3-ol

>  <PUBCHEM_IUPAC_TRADITIONAL_NAME>  (1) 
6-[hydroxy-(6-methoxy-4-quinolyl)methyl]-3-vinyl-quinuclidin-3-ol

>  <PUBCHEM_IUPAC_INCHI>  (1) 
InChI=1S/C20H24N2O3/c1-3-20(24)12-22-9-7-13(20)10-18(22)19(23)15-6-8-21-17-5-4-14(25-2)11-16(15)17/h3-6,8,11,13,18-19,23-24H,1,7,9-10,12H2,2H3

>  <PUBCHEM_IUPAC_INCHIKEY>  (1) 
BSRUJCFCZKMFMB-UHFFFAOYSA-N

>  <PUBCHEM_XLOGP3>  (1) 
1.8

>  <PUBCHEM_EXACT_MASS>  (1) 
340.178693

>  <PUBCHEM_MOLECULAR_FORMULA>  (1) 
C20H24N2O3

>  <PUBCHEM_MOLECULAR_WEIGHT>  (1) 
340.4

>  <PUBCHEM_OPENEYE_CAN_SMILES>  (1) 
COC1=CC2=C(C=CN=C2C=C1)C(C3CC4CCN3CC4(C=C)O)O

>  <PUBCHEM_OPENEYE_ISO_SMILES>  (1) 
COC1=CC2=C(C=CN=C2C=C1)C(C3CC4CCN3CC4(C=C)O)O

>  <PUBCHEM_CACTVS_TPSA>  (1) 
65.8

>  <PUBCHEM_MONOISOTOPIC_WEIGHT>  (1) 
340.178693

>  <PUBCHEM_TOTAL_CHARGE>  (1) 
0

>  <PUBCHEM_HEAVY_ATOM_COUNT>  (1) 
25

>  <PUBCHEM_ATOM_DEF_STEREO_COUNT>  (1) 
0

>  <PUBCHEM_ATOM_UDEF_STEREO_COUNT>  (1) 
4

>  <PUBCHEM_BOND_DEF_STEREO_COUNT>  (1) 
0

>  <PUBCHEM_BOND_UDEF_STEREO_COUNT>  (1) 
0

>  <PUBCHEM_ISOTOPIC_ATOM_COUNT>  (1) 
0

>  <PUBCHEM_COMPONENT_COUNT>  (1) 
1

>  <PUBCHEM_CACTVS_TAUTO_COUNT>  (1) 
-1

>  <PUBCHEM_COORDINATE_TYPE>  (1) 
1
5
255

>  <PUBCHEM_BONDANNOTATIONS>  (1) 
8  1  3
15  17  8
15  18  8
17  19  8
17  20  8
18  21  8
19  22  8
13  2  3
20  23  8
22  24  8
23  24  8
5  19  8
5  21  8
6  10  3
7  9  3

$$$$
