97
     RDKit          2D

 23 24  0  0  1  0  0  0  0  0999 V2000
    0.4729   -1.5301    0.0000 O   0  0  0  0  0  0  0  0  0  0  0  0
    4.2906   -0.4461    0.0000 O   0  0  0  0  0  0  0  0  0  0  0  0
   -1.0157    0.5992    0.0000 O   0  0  0  0  0  0  0  0  0  0  0  0
    0.2136    1.4587    0.0000 O   0  0  0  0  0  0  0  0  0  0  0  0
    2.6724    3.1776    0.0000 O   0  0  0  0  0  0  0  0  0  0  0  0
    5.3903    1.9077    0.0000 O   0  0  0  0  0  0  0  0  0  0  0  0
   -1.9859   -3.2490    0.0000 O   0  0  0  0  0  0  0  0  0  0  0  0
    1.9615   -3.6594    0.0000 O   0  0  0  0  0  0  0  0  0  0  0  0
   -4.9631    1.0097    0.0000 O   0  0  0  0  0  0  0  0  0  0  0  0
   -4.7038   -1.9791    0.0000 O   0  0  0  0  0  0  0  0  0  0  0  0
   -3.8633    3.3635    0.0000 O   0  0  0  0  0  0  0  0  0  0  0  0
    1.7022   -0.6706    0.0000 C   0  0  0  0  0  0  0  0  0  0  0  0
    1.5726    0.8238    0.0000 C   0  0  0  0  0  0  0  0  0  0  0  0
    3.0612   -1.3056    0.0000 C   0  0  0  0  0  0  0  0  0  0  0  0
    2.8020    1.6832    0.0000 C   0  0  0  0  0  0  0  0  0  0  0  0
   -0.8861   -0.8951    0.0000 C   0  0  0  0  0  0  0  0  0  0  0  0
    4.1610    1.0483    0.0000 C   0  0  0  0  0  0  0  0  0  0  0  0
   -2.1155   -1.7546    0.0000 C   0  0  0  0  0  0  0  0  0  0  0  0
   -2.3747    1.2342    0.0000 C   0  0  0  0  0  0  0  0  0  0  0  0
    3.1909   -2.8000    0.0000 C   0  0  0  0  0  0  0  0  0  0  0  0
   -3.6041    0.3747    0.0000 C   0  0  0  0  0  0  0  0  0  0  0  0
   -3.4745   -1.1197    0.0000 C   0  0  0  0  0  0  0  0  0  0  0  0
   -2.5044    2.7286    0.0000 C   0  0  0  0  0  0  0  0  0  0  0  0
  1 12  1  0
  1 16  1  0
  2 14  1  0
  2 17  1  0
  3 16  1  0
  3 19  1  0
  4 13  1  0
  5 15  1  0
  6 17  1  0
  7 18  1  0
  8 20  1  0
  9 21  1  0
 10 22  2  0
 11 23  1  0
 12 13  1  0
 12 14  1  0
 13 15  1  0
 14 20  1  0
 15 17  1  0
 16 18  1  0
 18 22  1  0
 19 21  1  0
 19 23  1  0
 21 22  1  0
M  END
>  <PUBCHEM_COMPOUND_CID>  (1) 
97

>  <PUBCHEM_COMPOUND_CANONICALIZED>  (1) 
1

>  <PUBCHEM_CACTVS_COMPLEXITY>  (1) 
418

>  <PUBCHEM_CACTVS_HBOND_ACCEPTOR>  (1) 
11

>  <PUBCHEM_CACTVS_HBOND_DONOR>  (1) 
7

>  <PUBCHEM_CACTVS_ROTATABLE_BOND>  (1) 
4

>  <PUBCHEM_CACTVS_SUBSKEYS>  (1) 
AAADceBwPAAAAAAAAAAAAAAAAAAAAAAAAAAkSAAAAAAAAAAAAAAAGgAACAAACBSwgAMACAAABgAIAIAQAAIAAAAAAAAAAAFAAAAREBYAAAAiQAAFIAAHAAHCYAwAAAAAAAAAAAAAAAAAAAAAAAAAAAAAAA==

>  <PUBCHEM_IUPAC_OPENEYE_NAME>  (1) 
3,5-dihydroxy-2-(hydroxymethyl)-6-[4,5,6-trihydroxy-2-(hydroxymethyl)tetrahydropyran-3-yl]oxy-tetrahydropyran-4-one

>  <PUBCHEM_IUPAC_CAS_NAME>  (1) 
3,5-dihydroxy-2-(hydroxymethyl)-6-[[4,5,6-trihydroxy-2-(hydroxymethyl)-3-oxanyl]oxy]-4-oxanone

>  <PUBCHEM_IUPAC_NAME_MARKUP>  (1) 
3,5-dihydroxy-2-(hydroxymethyl)-6-[4,5,6-trihydroxy-2-(hydroxymethyl)oxan-3-yl]oxyoxan-4-one

>  <PUBCHEM_IUPAC_NAME>  (1) 
3,5-dihydroxy-2-(hydroxymethyl)-6-[4,5,6-trihydroxy-2-(hydroxymethyl)oxan-3-yl]oxyoxan-4-one

>  <PUBCHEM_IUPAC_SYSTEMATIC_NAME>  (1) 
2-(hydroxymethyl)-6-[2-(hydroxymethyl)-4,5,6-tris(oxidanyl)oxan-3-yl]oxy-3,5-bis(oxidanyl)oxan-4-one

>  <PUBCHEM_IUPAC_TRADITIONAL_NAME>  (1) 
3,5-dihydroxy-2-methylol-6-(4,5,6-trihydroxy-2-methylol-tetrahydropyran-3-yl)oxy-tetrahydropyran-4-one

>  <PUBCHEM_IUPAC_INCHI>  (1) 
InChI=1S/C12H20O11/c13-1-3-5(15)6(16)9(19)12(22-3)23-10-4(2-14)21-11(20)8(18)7(10)17/h3-5,7-15,17-20H,1-2H2

>  <PUBCHEM_IUPAC_INCHIKEY>  (1) 
HKKHTABTHSUDBP-UHFFFAOYSA-N

>  <PUBCHEM_XLOGP3_AA>  (1) 
-4.3

>  <PUBCHEM_EXACT_MASS>  (1) 
340.100561

>  <PUBCHEM_MOLECULAR_FORMULA>  (1) 
C12H20O11

>  <PUBCHEM_MOLECULAR_WEIGHT>  (1) 
340.28

>  <PUBCHEM_OPENEYE_CAN_SMILES>  (1) 
C(C1C(C(C(C(O1)O)O)O)OC2C(C(=O)C(C(O2)CO)O)O)O

>  <PUBCHEM_OPENEYE_ISO_SMILES>  (1) 
C(C1C(C(C(C(O1)O)O)O)OC2C(C(=O)C(C(O2)CO)O)O)O

>  <PUBCHEM_CACTVS_TPSA>  (1) 
186

>  <PUBCHEM_MONOISOTOPIC_WEIGHT>  (1) 
340.100561

>  <PUBCHEM_TOTAL_CHARGE>  (1) 
0

>  <PUBCHEM_HEAVY_ATOM_COUNT>  (1) 
23

>  <PUBCHEM_ATOM_DEF_STEREO_COUNT>  (1) 
0

>  <PUBCHEM_ATOM_UDEF_STEREO_COUNT>  (1) 
9

>  <PUBCHEM_BOND_DEF_STEREO_COUNT>  (1) 
0

>  <PUBCHEM_BOND_UDEF_STEREO_COUNT>  (1) 
0

>  <PUBCHEM_ISOTOPIC_ATOM_COUNT>  (1) 
0

>  <PUBCHEM_COMPONENT_COUNT>  (1) 
1

>  <PUBCHEM_CACTVS_TAUTO_COUNT>  (1) 
-1

>  <PUBCHEM_COORDINATE_TYPE>  (1) 
1
5
255

>  <PUBCHEM_BONDANNOTATIONS>  (1) 
12  1  3
16  1  3
14  20  3
19  23  3
13  4  3
15  5  3
17  6  3
18  7  3
21  9  3

$$$$
