99
     RDKit          2D

 54 56  0  0  1  0  0  0  0  0999 V2000
  -14.5290   -0.0378    0.0000 S   0  0  0  0  0  0  0  0  0  0  0  0
    3.9039   -1.7467    0.0000 P   0  0  0  0  0  0  0  0  0  0  0  0
    3.6021    3.2807    0.0000 P   0  0  0  0  0  0  0  0  0  0  0  0
    1.0044    3.2352    0.0000 P   0  0  0  0  0  0  0  0  0  0  0  0
    7.6118    0.9608    0.0000 O   0  0  0  0  0  0  0  0  0  0  0  0
    5.3384   -2.1851    0.0000 O   0  0  0  0  0  0  0  0  0  0  0  0
    8.5418   -2.8075    0.0000 O   0  0  0  0  0  0  0  0  0  0  0  0
    4.9141    2.5536    0.0000 O   0  0  0  0  0  0  0  0  0  0  0  0
    4.3423   -0.3122    0.0000 O   0  0  0  0  0  0  0  0  0  0  0  0
    2.4694   -1.3083    0.0000 O   0  0  0  0  0  0  0  0  0  0  0  0
    2.2901    4.0078    0.0000 O   0  0  0  0  0  0  0  0  0  0  0  0
   -0.2813    2.4625    0.0000 O   0  0  0  0  0  0  0  0  0  0  0  0
    3.4654   -3.1812    0.0000 O   0  0  0  0  0  0  0  0  0  0  0  0
    4.3292    4.5927    0.0000 O   0  0  0  0  0  0  0  0  0  0  0  0
   -2.8000   -2.0824    0.0000 O   0  0  0  0  0  0  0  0  0  0  0  0
    2.8750    1.9687    0.0000 O   0  0  0  0  0  0  0  0  0  0  0  0
    1.7771    1.9495    0.0000 O   0  0  0  0  0  0  0  0  0  0  0  0
    0.2317    4.5208    0.0000 O   0  0  0  0  0  0  0  0  0  0  0  0
   -4.1646    1.6442    0.0000 O   0  0  0  0  0  0  0  0  0  0  0  0
   -9.3600    1.5531    0.0000 O   0  0  0  0  0  0  0  0  0  0  0  0
  -15.7884   -2.3102    0.0000 O   0  0  0  0  0  0  0  0  0  0  0  0
   10.1237    0.0468    0.0000 N   0  0  0  0  0  0  0  0  0  0  0  0
   12.3232    1.0727    0.0000 N   0  0  0  0  0  0  0  0  0  0  0  0
   11.0162   -2.5445    0.0000 N   0  0  0  0  0  0  0  0  0  0  0  0
   13.6044   -2.7707    0.0000 N   0  0  0  0  0  0  0  0  0  0  0  0
   15.0944   -0.6423    0.0000 N   0  0  0  0  0  0  0  0  0  0  0  0
   -5.4240   -0.6282    0.0000 N   0  0  0  0  0  0  0  0  0  0  0  0
  -10.6194   -0.7193    0.0000 N   0  0  0  0  0  0  0  0  0  0  0  0
    6.4353   -1.1620    0.0000 C   0  0  0  0  0  0  0  0  0  0  0  0
    7.9078   -1.4481    0.0000 C   0  0  0  0  0  0  0  0  0  0  0  0
    6.2524    0.3268    0.0000 C   0  0  0  0  0  0  0  0  0  0  0  0
    8.6349   -0.1361    0.0000 C   0  0  0  0  0  0  0  0  0  0  0  0
    4.9404    1.0539    0.0000 C   0  0  0  0  0  0  0  0  0  0  0  0
   11.1468   -1.0501    0.0000 C   0  0  0  0  0  0  0  0  0  0  0  0
   10.8508    1.3588    0.0000 C   0  0  0  0  0  0  0  0  0  0  0  0
   12.5062   -0.4161    0.0000 C   0  0  0  0  0  0  0  0  0  0  0  0
   -1.5407    0.1900    0.0000 C   0  0  0  0  0  0  0  0  0  0  0  0
   -2.8263   -0.5826    0.0000 C   0  0  0  0  0  0  0  0  0  0  0  0
   -0.2550    0.9627    0.0000 C   0  0  0  0  0  0  0  0  0  0  0  0
   13.7350   -1.2764    0.0000 C   0  0  0  0  0  0  0  0  0  0  0  0
   -2.3133    1.4757    0.0000 C   0  0  0  0  0  0  0  0  0  0  0  0
   -0.7680   -1.0956    0.0000 C   0  0  0  0  0  0  0  0  0  0  0  0
   12.2450   -3.4047    0.0000 C   0  0  0  0  0  0  0  0  0  0  0  0
   -4.1383    0.1445    0.0000 C   0  0  0  0  0  0  0  0  0  0  0  0
   -6.7360    0.0989    0.0000 C   0  0  0  0  0  0  0  0  0  0  0  0
   -8.0217   -0.6738    0.0000 C   0  0  0  0  0  0  0  0  0  0  0  0
   -9.3337    0.0533    0.0000 C   0  0  0  0  0  0  0  0  0  0  0  0
  -11.9314    0.0078    0.0000 C   0  0  0  0  0  0  0  0  0  0  0  0
  -13.2171   -0.7649    0.0000 C   0  0  0  0  0  0  0  0  0  0  0  0
  -15.8147   -0.8105    0.0000 C   0  0  0  0  0  0  0  0  0  0  0  0
  -17.1267   -0.0834    0.0000 C   0  0  0  0  0  0  0  0  0  0  0  0
  -18.4124   -0.8560    0.0000 C   0  0  0  0  0  0  0  0  0  0  0  0
  -19.7244   -0.1289    0.0000 C   0  0  0  0  0  0  0  0  0  0  0  0
  -18.3861   -2.3558    0.0000 C   0  0  0  0  0  0  0  0  0  0  0  0
  1 49  1  0
  1 50  1  0
  2  6  1  0
  2  9  1  0
  2 10  1  0
  2 13  2  0
  3  8  1  0
  3 11  1  0
  3 14  1  0
  3 16  2  0
  4 11  1  0
  4 12  1  0
  4 17  1  0
  4 18  2  0
  5 31  1  0
  5 32  1  0
  6 29  1  0
  7 30  1  0
  8 33  1  0
 12 39  1  0
 15 38  1  0
 19 44  2  0
 20 47  2  0
 21 50  2  0
 22 32  1  0
 22 34  1  0
 22 35  1  0
 23 35  2  0
 23 36  1  0
 24 34  1  0
 24 43  2  0
 25 40  2  0
 25 43  1  0
 26 40  1  0
 27 44  1  0
 27 45  1  0
 28 47  1  0
 28 48  1  0
 29 30  1  0
 29 31  1  0
 30 32  1  0
 31 33  1  0
 34 36  2  0
 36 40  1  0
 37 38  1  0
 37 39  1  0
 37 41  1  0
 37 42  1  0
 38 44  1  0
 45 46  1  0
 46 47  1  0
 48 49  1  0
 50 51  1  0
 51 52  2  3
 52 53  1  0
 52 54  1  0
M  END
>  <PUBCHEM_COMPOUND_CID>  (1) 
99

>  <PUBCHEM_COMPOUND_CANONICALIZED>  (1) 
1

>  <PUBCHEM_CACTVS_COMPLEXITY>  (1) 
1500

>  <PUBCHEM_CACTVS_HBOND_ACCEPTOR>  (1) 
22

>  <PUBCHEM_CACTVS_HBOND_DONOR>  (1) 
9

>  <PUBCHEM_CACTVS_ROTATABLE_BOND>  (1) 
21

>  <PUBCHEM_CACTVS_SUBSKEYS>  (1) 
AAADcfB7vgNAAAAAAAAAAAAAAAAAAWJAAAAsAAAAAAAAAFgB+AAAHgQQCCAADhzl1waH8L/MFxioQydzdIKAgC0RELABWKFoVFCDWBpAyUAeRAgPFgLzASDyMAIJAAAAAAAAAAAAAAAAAAAAAAAAAAAAAA==

>  <PUBCHEM_IUPAC_OPENEYE_NAME>  (1) 
S-[2-[3-[[4-[[[5-(6-aminopurin-9-yl)-4-hydroxy-3-phosphonooxy-tetrahydrofuran-2-yl]methoxy-hydroxy-phosphoryl]oxy-hydroxy-phosphoryl]oxy-2-hydroxy-3,3-dimethyl-butanoyl]amino]propanoylamino]ethyl] 3-methylbut-2-enethioate

>  <PUBCHEM_IUPAC_CAS_NAME>  (1) 
3-methyl-2-butenethioic acid S-[2-[[3-[[4-[[[5-(6-aminopurin-9-yl)-4-hydroxy-3-phosphonooxy-2-oxolanyl]methoxy-hydroxyphosphoryl]oxy-hydroxyphosphoryl]oxy-2-hydroxy-3,3-dimethyl-1-oxobutyl]amino]-1-oxopropyl]amino]ethyl] ester

>  <PUBCHEM_IUPAC_NAME_MARKUP>  (1) 
<I>S</I>-[2-[3-[[4-[[[5-(6-aminopurin-9-yl)-4-hydroxy-3-phosphonooxyoxolan-2-yl]methoxy-hydroxyphosphoryl]oxy-hydroxyphosphoryl]oxy-2-hydroxy-3,3-dimethylbutanoyl]amino]propanoylamino]ethyl] 3-methylbut-2-enethioate

>  <PUBCHEM_IUPAC_NAME>  (1) 
S-[2-[3-[[4-[[[5-(6-aminopurin-9-yl)-4-hydroxy-3-phosphonooxyoxolan-2-yl]methoxy-hydroxyphosphoryl]oxy-hydroxyphosphoryl]oxy-2-hydroxy-3,3-dimethylbutanoyl]amino]propanoylamino]ethyl] 3-methylbut-2-enethioate

>  <PUBCHEM_IUPAC_SYSTEMATIC_NAME>  (1) 
S-[2-[3-[[4-[[[5-(6-aminopurin-9-yl)-4-oxidanyl-3-phosphonooxy-oxolan-2-yl]methoxy-oxidanyl-phosphoryl]oxy-oxidanyl-phosphoryl]oxy-3,3-dimethyl-2-oxidanyl-butanoyl]amino]propanoylamino]ethyl] 3-methylbut-2-enethioate

>  <PUBCHEM_IUPAC_TRADITIONAL_NAME>  (1) 
3-methylbut-2-enethioic acid S-[2-[3-[[4-[[(5-adenin-9-yl-4-hydroxy-3-phosphonooxy-tetrahydrofuran-2-yl)methoxy-hydroxy-phosphoryl]oxy-hydroxy-phosphoryl]oxy-2-hydroxy-3,3-dimethyl-butanoyl]amino]propanoylamino]ethyl] ester

>  <PUBCHEM_IUPAC_INCHI>  (1) 
InChI=1S/C26H42N7O17P3S/c1-14(2)9-17(35)54-8-7-28-16(34)5-6-29-24(38)21(37)26(3,4)11-47-53(44,45)50-52(42,43)46-10-15-20(49-51(39,40)41)19(36)25(48-15)33-13-32-18-22(27)30-12-31-23(18)33/h9,12-13,15,19-21,25,36-37H,5-8,10-11H2,1-4H3,(H,28,34)(H,29,38)(H,42,43)(H,44,45)(H2,27,30,31)(H2,39,40,41)

>  <PUBCHEM_IUPAC_INCHIKEY>  (1) 
BXIPALATIYNHJN-UHFFFAOYSA-N

>  <PUBCHEM_XLOGP3>  (1) 
-4.2

>  <PUBCHEM_EXACT_MASS>  (1) 
849.157075

>  <PUBCHEM_MOLECULAR_FORMULA>  (1) 
C26H42N7O17P3S

>  <PUBCHEM_MOLECULAR_WEIGHT>  (1) 
849.6

>  <PUBCHEM_OPENEYE_CAN_SMILES>  (1) 
CC(=CC(=O)SCCNC(=O)CCNC(=O)C(C(C)(C)COP(=O)(O)OP(=O)(O)OCC1C(C(C(O1)N2C=NC3=C(N=CN=C32)N)O)OP(=O)(O)O)O)C

>  <PUBCHEM_OPENEYE_ISO_SMILES>  (1) 
CC(=CC(=O)SCCNC(=O)CCNC(=O)C(C(C)(C)COP(=O)(O)OP(=O)(O)OCC1C(C(C(O1)N2C=NC3=C(N=CN=C32)N)O)OP(=O)(O)O)O)C

>  <PUBCHEM_CACTVS_TPSA>  (1) 
389

>  <PUBCHEM_MONOISOTOPIC_WEIGHT>  (1) 
849.157075

>  <PUBCHEM_TOTAL_CHARGE>  (1) 
0

>  <PUBCHEM_HEAVY_ATOM_COUNT>  (1) 
54

>  <PUBCHEM_ATOM_DEF_STEREO_COUNT>  (1) 
0

>  <PUBCHEM_ATOM_UDEF_STEREO_COUNT>  (1) 
5

>  <PUBCHEM_BOND_DEF_STEREO_COUNT>  (1) 
0

>  <PUBCHEM_BOND_UDEF_STEREO_COUNT>  (1) 
0

>  <PUBCHEM_ISOTOPIC_ATOM_COUNT>  (1) 
0

>  <PUBCHEM_COMPONENT_COUNT>  (1) 
1

>  <PUBCHEM_CACTVS_TAUTO_COUNT>  (1) 
-1

>  <PUBCHEM_COORDINATE_TYPE>  (1) 
1
5
255

>  <PUBCHEM_BONDANNOTATIONS>  (1) 
38  15  3
32  22  3
22  34  8
22  35  8
23  35  8
23  36  8
24  34  8
24  43  8
25  40  8
25  43  8
31  33  3
34  36  8
36  40  8
29  6  3
30  7  3

$$$$
